MODEL        1
REMARK 921   NORMALIZED FREE ENERGY PREDICTED BY IDOCK:   -5.76 KCAL/MOL
REMARK 922        TOTAL FREE ENERGY PREDICTED BY IDOCK:   -6.74 KCAL/MOL
REMARK 923 INTER-LIGAND FREE ENERGY PREDICTED BY IDOCK:   -6.43 KCAL/MOL
REMARK 924 INTRA-LIGAND FREE ENERGY PREDICTED BY IDOCK:   -0.31 KCAL/MOL
REMARK 927      BINDING AFFINITY PREDICTED BY RF-SCORE:    0.00 PKD
ROOT
HETATM    1  O   UNL     1      -9.754  13.428  65.575  1.00  0.00    -0.475 OA 
HETATM    2  C   UNL     1     -11.185  13.307  65.857  1.00  0.00    -0.290 C  
HETATM    3  H   UNL     1      -9.466  12.611  65.184  1.00  0.00     0.000 HD 
HETATM    4  O   UNL     1     -11.070  12.542  63.250  1.00  0.00    -0.438 OA 
HETATM    5  P   UNL     1     -11.534  12.070  67.160  1.00  0.00    -0.279 P  
HETATM    6  P   UNL     1     -12.125  13.020  64.347  1.00  0.00    -0.437 P  
HETATM    7  O   UNL     1     -10.146  12.600  67.904  1.00  0.00    -0.210 OA 
HETATM    8  O   UNL     1     -10.734  10.947  66.260  1.00  0.00    -0.243 OA 
HETATM    9  O   UNL     1     -12.542  14.461  63.783  1.00  0.00    -0.829 OA 
HETATM   10  O   UNL     1     -13.300  12.123  64.427  1.00  0.00    -0.740 OA 
HETATM   11  O   UNL     1     -11.829  11.025  68.263  1.00  0.00    -0.537 OA 
ENDROOT
BRANCH   2  12
HETATM   12  C   UNL     1     -11.656  14.644  66.497  1.00  0.00    -0.344 C  
BRANCH  12  13
HETATM   13  N   UNL     1     -10.776  15.803  66.452  1.00  0.00    -0.303 NA 
HETATM   14  C   UNL     1     -10.049  16.229  67.544  1.00  0.00    -0.258 A  
HETATM   15  C   UNL     1      -9.404  17.372  67.139  1.00  0.00    -0.245 A  
HETATM   16  N   UNL     1      -9.705  17.647  65.839  1.00  0.00    -0.542 NA 
HETATM   17  C   UNL     1     -10.540  16.711  65.461  1.00  0.00    -0.258 A  
ENDBRANCH  12  13
ENDBRANCH   2  12
TORSDOF 2
ENDMDL
MODEL        2
REMARK 921   NORMALIZED FREE ENERGY PREDICTED BY IDOCK:   -5.75 KCAL/MOL
REMARK 922        TOTAL FREE ENERGY PREDICTED BY IDOCK:   -6.73 KCAL/MOL
REMARK 923 INTER-LIGAND FREE ENERGY PREDICTED BY IDOCK:   -6.52 KCAL/MOL
REMARK 924 INTRA-LIGAND FREE ENERGY PREDICTED BY IDOCK:   -0.20 KCAL/MOL
REMARK 927      BINDING AFFINITY PREDICTED BY RF-SCORE:    0.00 PKD
ROOT
HETATM    1  O   UNL     1     -12.654  14.243  66.979  1.00  0.00    -0.553 OA 
HETATM    2  C   UNL     1     -11.551  13.626  66.241  1.00  0.00    -0.348 C  
HETATM    3  H   UNL     1     -13.370  13.619  67.005  1.00  0.00     0.000 HD 
HETATM    4  O   UNL     1     -12.146  11.694  68.060  1.00  0.00    -0.597 OA 
HETATM    5  P   UNL     1     -11.955  13.374  64.473  1.00  0.00    -0.440 P  
HETATM    6  P   UNL     1     -10.985  12.120  67.052  1.00  0.00    -0.305 P  
HETATM    7  O   UNL     1     -12.763  14.824  64.547  1.00  0.00    -0.569 OA 
HETATM    8  O   UNL     1     -13.277  12.507  64.933  1.00  0.00    -0.787 OA 
HETATM    9  O   UNL     1      -9.823  12.554  68.068  1.00  0.00    -0.201 OA 
HETATM   10  O   UNL     1     -10.545  10.999  66.193  1.00  0.00    -0.257 OA 
HETATM   11  O   UNL     1     -12.295  13.163  62.978  1.00  0.00    -0.584 OA 
ENDROOT
BRANCH   2  12
HETATM   12  C   UNL     1     -10.379  14.648  66.199  1.00  0.00    -0.300 C  
BRANCH  12  13
HETATM   13  N   UNL     1     -10.473  15.870  66.983  1.00  0.00    -0.303 NA 
HETATM   14  C   UNL     1     -10.475  17.124  66.408  1.00  0.00    -0.255 A  
HETATM   15  C   UNL     1     -10.506  18.013  67.455  1.00  0.00    -0.396 A  
HETATM   16  N   UNL     1     -10.535  17.343  68.641  1.00  0.00    -0.363 NA 
HETATM   17  C   UNL     1     -10.492  16.070  68.332  1.00  0.00    -0.263 A  
ENDBRANCH  12  13
ENDBRANCH   2  12
TORSDOF 2
ENDMDL
MODEL        3
REMARK 921   NORMALIZED FREE ENERGY PREDICTED BY IDOCK:   -5.54 KCAL/MOL
REMARK 922        TOTAL FREE ENERGY PREDICTED BY IDOCK:   -6.50 KCAL/MOL
REMARK 923 INTER-LIGAND FREE ENERGY PREDICTED BY IDOCK:   -6.26 KCAL/MOL
REMARK 924 INTRA-LIGAND FREE ENERGY PREDICTED BY IDOCK:   -0.24 KCAL/MOL
REMARK 927      BINDING AFFINITY PREDICTED BY RF-SCORE:    0.00 PKD
ROOT
HETATM    1  O   UNL     1     -12.424  14.455  66.764  1.00  0.00    -0.563 OA 
HETATM    2  C   UNL     1     -11.427  13.685  66.016  1.00  0.00    -0.324 C  
HETATM    3  H   UNL     1     -13.187  13.902  66.881  1.00  0.00     0.000 HD 
HETATM    4  O   UNL     1     -12.068  11.960  68.018  1.00  0.00    -0.541 OA 
HETATM    5  P   UNL     1     -11.963  13.338  64.301  1.00  0.00    -0.445 P  
HETATM    6  P   UNL     1     -10.941  12.201  66.914  1.00  0.00    -0.303 P  
HETATM    7  O   UNL     1     -12.637  14.856  64.302  1.00  0.00    -0.699 OA 
HETATM    8  O   UNL     1     -13.323  12.632  64.905  1.00  0.00    -0.741 OA 
HETATM    9  O   UNL     1      -9.684  12.604  67.823  1.00  0.00    -0.195 OA 
HETATM   10  O   UNL     1     -10.655  10.982  66.125  1.00  0.00    -0.257 OA 
HETATM   11  O   UNL     1     -12.416  13.044  62.850  1.00  0.00    -0.406 OA 
ENDROOT
BRANCH   2  12
HETATM   12  C   UNL     1     -10.177  14.591  65.824  1.00  0.00    -0.335 C  
BRANCH  12  13
HETATM   13  N   UNL     1     -10.168  15.924  66.408  1.00  0.00    -0.287 NA 
HETATM   14  C   UNL     1      -9.833  16.157  67.726  1.00  0.00    -0.232 A  
HETATM   15  C   UNL     1     -10.005  17.506  67.921  1.00  0.00    -0.312 A  
HETATM   16  N   UNL     1     -10.420  18.099  66.766  1.00  0.00    -0.365 NA 
HETATM   17  C   UNL     1     -10.530  17.132  65.889  1.00  0.00    -0.258 A  
ENDBRANCH  12  13
ENDBRANCH   2  12
TORSDOF 2
ENDMDL
MODEL        4
REMARK 921   NORMALIZED FREE ENERGY PREDICTED BY IDOCK:   -5.35 KCAL/MOL
REMARK 922        TOTAL FREE ENERGY PREDICTED BY IDOCK:   -6.29 KCAL/MOL
REMARK 923 INTER-LIGAND FREE ENERGY PREDICTED BY IDOCK:   -6.04 KCAL/MOL
REMARK 924 INTRA-LIGAND FREE ENERGY PREDICTED BY IDOCK:   -0.25 KCAL/MOL
REMARK 927      BINDING AFFINITY PREDICTED BY RF-SCORE:    0.00 PKD
ROOT
HETATM    1  O   UNL     1      -9.462  14.430  67.236  1.00  0.00    -0.204 OA 
HETATM    2  C   UNL     1     -10.552  15.406  67.196  1.00  0.00    -0.305 C  
HETATM    3  H   UNL     1      -8.655  14.890  67.037  1.00  0.00     0.000 HD 
HETATM    4  O   UNL     1      -8.771  16.636  68.842  1.00  0.00    -0.251 OA 
HETATM    5  P   UNL     1     -10.841  16.056  65.510  1.00  0.00    -0.176 P  
HETATM    6  P   UNL     1     -10.307  16.708  68.417  1.00  0.00    -0.340 P  
HETATM    7  O   UNL     1     -10.505  14.524  64.962  1.00  0.00    -0.392 OA 
HETATM    8  O   UNL     1      -9.263  16.523  65.456  1.00  0.00    -0.430 OA 
HETATM    9  O   UNL     1     -11.033  16.221  69.761  1.00  0.00    -0.322 OA 
HETATM   10  O   UNL     1     -10.728  18.080  68.055  1.00  0.00    -0.376 OA 
HETATM   11  O   UNL     1     -11.086  16.605  64.083  1.00  0.00    -1.005 OA 
ENDROOT
BRANCH   2  12
HETATM   12  C   UNL     1     -11.874  14.652  67.521  1.00  0.00    -0.347 C  
BRANCH  12  13
HETATM   13  N   UNL     1     -11.815  13.255  67.924  1.00  0.00    -0.352 NA 
HETATM   14  C   UNL     1     -11.695  12.865  69.241  1.00  0.00    -0.321 A  
HETATM   15  C   UNL     1     -11.604  11.494  69.217  1.00  0.00    -0.322 A  
HETATM   16  N   UNL     1     -11.677  11.041  67.934  1.00  0.00    -0.592 NA 
HETATM   17  C   UNL     1     -11.780  12.110  67.184  1.00  0.00    -0.302 A  
ENDBRANCH  12  13
ENDBRANCH   2  12
TORSDOF 2
ENDMDL
MODEL        5
REMARK 921   NORMALIZED FREE ENERGY PREDICTED BY IDOCK:   -5.27 KCAL/MOL
REMARK 922        TOTAL FREE ENERGY PREDICTED BY IDOCK:   -6.20 KCAL/MOL
REMARK 923 INTER-LIGAND FREE ENERGY PREDICTED BY IDOCK:   -5.96 KCAL/MOL
REMARK 924 INTRA-LIGAND FREE ENERGY PREDICTED BY IDOCK:   -0.24 KCAL/MOL
REMARK 927      BINDING AFFINITY PREDICTED BY RF-SCORE:    0.00 PKD
ROOT
HETATM    1  O   UNL     1     -10.151  13.906  67.805  1.00  0.00    -0.233 OA 
HETATM    2  C   UNL     1     -11.079  14.699  66.997  1.00  0.00    -0.333 C  
HETATM    3  H   UNL     1      -9.509  13.525  67.217  1.00  0.00     0.000 HD 
HETATM    4  O   UNL     1      -8.673  15.645  66.156  1.00  0.00    -0.317 OA 
HETATM    5  P   UNL     1     -12.094  13.658  65.885  1.00  0.00    -0.473 P  
HETATM    6  P   UNL     1     -10.222  16.025  66.129  1.00  0.00    -0.358 P  
HETATM    7  O   UNL     1     -12.134  12.544  67.117  1.00  0.00    -0.504 OA 
HETATM    8  O   UNL     1     -10.705  13.044  65.248  1.00  0.00    -0.286 OA 
HETATM    9  O   UNL     1     -10.254  17.303  67.095  1.00  0.00    -0.303 OA 
HETATM   10  O   UNL     1     -10.693  16.376  64.771  1.00  0.00    -0.700 OA 
HETATM   11  O   UNL     1     -12.954  12.778  64.945  1.00  0.00    -0.805 OA 
ENDROOT
BRANCH   2  12
HETATM   12  C   UNL     1     -12.129  15.324  67.960  1.00  0.00     0.122 C  
BRANCH  12  13
HETATM   13  N   UNL     1     -11.996  15.109  69.394  1.00  0.00    -0.317 NA 
HETATM   14  C   UNL     1     -11.303  15.975  70.215  1.00  0.00    -0.382 A  
HETATM   15  C   UNL     1     -11.339  15.410  71.466  1.00  0.00    -0.396 A  
HETATM   16  N   UNL     1     -12.038  14.240  71.435  1.00  0.00    -0.328 NA 
HETATM   17  C   UNL     1     -12.398  14.074  70.186  1.00  0.00    -0.345 A  
ENDBRANCH  12  13
ENDBRANCH   2  12
TORSDOF 2
ENDMDL
MODEL        6
REMARK 921   NORMALIZED FREE ENERGY PREDICTED BY IDOCK:   -5.24 KCAL/MOL
REMARK 922        TOTAL FREE ENERGY PREDICTED BY IDOCK:   -6.16 KCAL/MOL
REMARK 923 INTER-LIGAND FREE ENERGY PREDICTED BY IDOCK:   -5.91 KCAL/MOL
REMARK 924 INTRA-LIGAND FREE ENERGY PREDICTED BY IDOCK:   -0.26 KCAL/MOL
REMARK 927      BINDING AFFINITY PREDICTED BY RF-SCORE:    0.00 PKD
ROOT
HETATM    1  O   UNL     1     -12.653  14.570  67.024  1.00  0.00    -0.492 OA 
HETATM    2  C   UNL     1     -11.309  14.082  66.711  1.00  0.00    -0.334 C  
HETATM    3  H   UNL     1     -13.069  14.814  66.206  1.00  0.00     0.000 HD 
HETATM    4  O   UNL     1     -12.838  12.620  65.001  1.00  0.00    -0.765 OA 
HETATM    5  P   UNL     1     -10.223  15.406  66.064  1.00  0.00    -0.380 P  
HETATM    6  P   UNL     1     -11.373  12.639  65.634  1.00  0.00    -0.356 P  
HETATM    7  O   UNL     1     -10.972  16.420  67.146  1.00  0.00    -0.226 OA 
HETATM    8  O   UNL     1     -11.333  15.693  64.883  1.00  0.00    -0.372 OA 
HETATM    9  O   UNL     1     -11.421  11.353  66.589  1.00  0.00    -0.408 OA 
HETATM   10  O   UNL     1     -10.314  12.497  64.609  1.00  0.00    -0.298 OA 
HETATM   11  O   UNL     1      -9.304  16.526  65.519  1.00  0.00    -0.453 OA 
ENDROOT
BRANCH   2  12
HETATM   12  C   UNL     1     -10.627  13.681  68.050  1.00  0.00    -0.249 C  
BRANCH  12  13
HETATM   13  N   UNL     1     -11.430  13.604  69.262  1.00  0.00    -0.276 NA 
HETATM   14  C   UNL     1     -11.641  14.691  70.084  1.00  0.00    -0.282 A  
HETATM   15  C   UNL     1     -12.376  14.219  71.144  1.00  0.00    -0.368 A  
HETATM   16  N   UNL     1     -12.627  12.889  70.987  1.00  0.00    -0.345 NA 
HETATM   17  C   UNL     1     -12.034  12.544  69.871  1.00  0.00    -0.301 A  
ENDBRANCH  12  13
ENDBRANCH   2  12
TORSDOF 2
ENDMDL
MODEL        7
REMARK 921   NORMALIZED FREE ENERGY PREDICTED BY IDOCK:   -5.23 KCAL/MOL
REMARK 922        TOTAL FREE ENERGY PREDICTED BY IDOCK:   -6.14 KCAL/MOL
REMARK 923 INTER-LIGAND FREE ENERGY PREDICTED BY IDOCK:   -5.83 KCAL/MOL
REMARK 924 INTRA-LIGAND FREE ENERGY PREDICTED BY IDOCK:   -0.32 KCAL/MOL
REMARK 927      BINDING AFFINITY PREDICTED BY RF-SCORE:    0.00 PKD
ROOT
HETATM    1  O   UNL     1      -9.305  15.341  65.455  1.00  0.00    -0.345 OA 
HETATM    2  C   UNL     1      -9.766  15.993  66.682  1.00  0.00    -0.244 C  
HETATM    3  H   UNL     1      -8.489  15.754  65.197  1.00  0.00     0.000 HD 
HETATM    4  O   UNL     1      -7.196  15.374  67.318  1.00  0.00    -0.199 OA 
HETATM    5  P   UNL     1     -10.246  17.737  66.403  1.00  0.00    -0.294 P  
HETATM    6  P   UNL     1      -8.567  15.799  68.013  1.00  0.00    -0.167 P  
HETATM    7  O   UNL     1     -10.854  17.239  64.939  1.00  0.00    -0.773 OA 
HETATM    8  O   UNL     1      -8.743  18.017  65.789  1.00  0.00    -0.482 OA 
HETATM    9  O   UNL     1      -8.960  14.456  68.794  1.00  0.00    -0.185 OA 
HETATM   10  O   UNL     1      -8.396  16.928  68.955  1.00  0.00    -0.249 OA 
HETATM   11  O   UNL     1     -10.653  19.212  66.167  1.00  0.00    -0.445 OA 
ENDROOT
BRANCH   2  12
HETATM   12  C   UNL     1     -11.102  15.317  67.103  1.00  0.00    -0.323 C  
BRANCH  12  13
HETATM   13  N   UNL     1     -11.524  14.096  66.433  1.00  0.00    -0.341 NA 
HETATM   14  C   UNL     1     -12.434  14.092  65.397  1.00  0.00    -0.498 A  
HETATM   15  C   UNL     1     -12.628  12.770  65.077  1.00  0.00    -0.468 A  
HETATM   16  N   UNL     1     -11.859  11.976  65.873  1.00  0.00    -0.510 NA 
HETATM   17  C   UNL     1     -11.230  12.788  66.686  1.00  0.00    -0.301 A  
ENDBRANCH  12  13
ENDBRANCH   2  12
TORSDOF 2
ENDMDL
MODEL        8
REMARK 921   NORMALIZED FREE ENERGY PREDICTED BY IDOCK:   -5.10 KCAL/MOL
REMARK 922        TOTAL FREE ENERGY PREDICTED BY IDOCK:   -6.00 KCAL/MOL
REMARK 923 INTER-LIGAND FREE ENERGY PREDICTED BY IDOCK:   -5.70 KCAL/MOL
REMARK 924 INTRA-LIGAND FREE ENERGY PREDICTED BY IDOCK:   -0.30 KCAL/MOL
REMARK 927      BINDING AFFINITY PREDICTED BY RF-SCORE:    0.00 PKD
ROOT
HETATM    1  O   UNL     1     -10.745  15.782  67.685  1.00  0.00    -0.297 OA 
HETATM    2  C   UNL     1      -9.751  16.243  66.714  1.00  0.00    -0.241 C  
HETATM    3  H   UNL     1     -10.679  16.337  68.452  1.00  0.00     0.000 HD 
HETATM    4  O   UNL     1     -11.033  18.560  67.333  1.00  0.00    -0.376 OA 
HETATM    5  P   UNL     1      -8.036  15.963  67.290  1.00  0.00    -0.226 P  
HETATM    6  P   UNL     1     -10.058  17.951  66.228  1.00  0.00    -0.270 P  
HETATM    7  O   UNL     1      -8.588  14.539  67.945  1.00  0.00    -0.148 OA 
HETATM    8  O   UNL     1      -8.386  16.831  68.645  1.00  0.00    -0.232 OA 
HETATM    9  O   UNL     1     -11.020  17.898  64.947  1.00  0.00    -0.827 OA 
HETATM   10  O   UNL     1      -8.884  18.816  65.973  1.00  0.00    -0.479 OA 
HETATM   11  O   UNL     1      -6.586  15.725  67.777  1.00  0.00    -0.130 OA 
ENDROOT
BRANCH   2  12
HETATM   12  C   UNL     1      -9.860  15.333  65.457  1.00  0.00    -0.326 C  
BRANCH  12  13
HETATM   13  N   UNL     1     -11.002  14.442  65.320  1.00  0.00    -0.329 NA 
HETATM   14  C   UNL     1     -10.963  13.117  65.701  1.00  0.00    -0.277 A  
HETATM   15  C   UNL     1     -12.186  12.595  65.359  1.00  0.00    -0.459 A  
HETATM   16  N   UNL     1     -12.968  13.558  64.796  1.00  0.00    -0.686 NA 
HETATM   17  C   UNL     1     -12.232  14.641  64.765  1.00  0.00    -0.394 A  
ENDBRANCH  12  13
ENDBRANCH   2  12
TORSDOF 2
ENDMDL
MODEL        9
REMARK 921   NORMALIZED FREE ENERGY PREDICTED BY IDOCK:   -5.09 KCAL/MOL
REMARK 922        TOTAL FREE ENERGY PREDICTED BY IDOCK:   -5.99 KCAL/MOL
REMARK 923 INTER-LIGAND FREE ENERGY PREDICTED BY IDOCK:   -6.45 KCAL/MOL
REMARK 924 INTRA-LIGAND FREE ENERGY PREDICTED BY IDOCK:    0.46 KCAL/MOL
REMARK 927      BINDING AFFINITY PREDICTED BY RF-SCORE:    0.00 PKD
ROOT
HETATM    1  O   UNL     1      -9.953  13.291  64.030  1.00  0.00    -0.762 OA 
HETATM    2  C   UNL     1     -10.657  14.032  65.079  1.00  0.00    -0.410 C  
HETATM    3  H   UNL     1     -10.500  12.557  63.778  1.00  0.00     0.000 HD 
HETATM    4  O   UNL     1     -12.574  13.835  63.159  1.00  0.00    -0.793 OA 
HETATM    5  P   UNL     1     -10.809  13.068  66.627  1.00  0.00    -0.285 P  
HETATM    6  P   UNL     1     -12.238  14.659  64.484  1.00  0.00    -0.222 P  
HETATM    7  O   UNL     1      -9.286  12.486  66.305  1.00  0.00    -0.232 OA 
HETATM    8  O   UNL     1     -11.549  11.872  65.769  1.00  0.00    -0.327 OA 
HETATM    9  O   UNL     1     -11.960  16.121  63.890  1.00  0.00    -0.947 OA 
HETATM   10  O   UNL     1     -13.372  14.682  65.436  1.00  0.00    -0.320 OA 
HETATM   11  O   UNL     1     -10.937  12.253  67.937  1.00  0.00    -0.206 OA 
ENDROOT
BRANCH   2  12
HETATM   12  C   UNL     1      -9.761  15.234  65.492  1.00  0.00    -0.278 C  
BRANCH  12  13
HETATM   13  N   UNL     1     -10.227  16.146  66.526  1.00  0.00    -0.287 NA 
HETATM   14  C   UNL     1     -10.148  17.518  66.400  1.00  0.00    -0.345 A  
HETATM   15  C   UNL     1     -10.613  18.028  67.587  1.00  0.00    -0.399 A  
HETATM   16  N   UNL     1     -10.982  17.017  68.422  1.00  0.00    -0.324 NA 
HETATM   17  C   UNL     1     -10.721  15.908  67.775  1.00  0.00    -0.320 A  
ENDBRANCH  12  13
ENDBRANCH   2  12
TORSDOF 2
ENDMDL
MODEL       10
REMARK 921   NORMALIZED FREE ENERGY PREDICTED BY IDOCK:   -5.07 KCAL/MOL
REMARK 922        TOTAL FREE ENERGY PREDICTED BY IDOCK:   -5.97 KCAL/MOL
REMARK 923 INTER-LIGAND FREE ENERGY PREDICTED BY IDOCK:   -5.88 KCAL/MOL
REMARK 924 INTRA-LIGAND FREE ENERGY PREDICTED BY IDOCK:   -0.09 KCAL/MOL
REMARK 927      BINDING AFFINITY PREDICTED BY RF-SCORE:    0.00 PKD
ROOT
HETATM    1  O   UNL     1     -12.646  14.014  67.340  1.00  0.00    -0.460 OA 
HETATM    2  C   UNL     1     -11.221  13.805  67.603  1.00  0.00    -0.293 C  
HETATM    3  H   UNL     1     -13.067  14.213  68.168  1.00  0.00     0.000 HD 
HETATM    4  O   UNL     1     -11.664  16.191  68.831  1.00  0.00    -0.357 OA 
HETATM    5  P   UNL     1     -10.914  12.303  68.604  1.00  0.00    -0.251 P  
HETATM    6  P   UNL     1     -10.463  15.282  68.303  1.00  0.00    -0.257 P  
HETATM    7  O   UNL     1     -12.153  11.595  67.753  1.00  0.00    -0.613 OA 
HETATM    8  O   UNL     1     -11.924  12.906  69.756  1.00  0.00    -0.313 OA 
HETATM    9  O   UNL     1      -9.923  16.150  67.069  1.00  0.00    -0.247 OA 
HETATM   10  O   UNL     1      -9.406  15.096  69.322  1.00  0.00    -0.218 OA 
HETATM   11  O   UNL     1     -10.653  11.033  69.449  1.00  0.00    -0.223 OA 
ENDROOT
BRANCH   2  12
HETATM   12  C   UNL     1     -10.533  13.479  66.247  1.00  0.00    -0.290 C  
BRANCH  12  13
HETATM   13  N   UNL     1     -11.354  13.298  65.058  1.00  0.00    -0.299 NA 
HETATM   14  C   UNL     1     -11.507  12.075  64.439  1.00  0.00    -0.343 A  
HETATM   15  C   UNL     1     -12.283  12.314  63.331  1.00  0.00    -0.527 A  
HETATM   16  N   UNL     1     -12.613  13.634  63.263  1.00  0.00    -0.755 NA 
HETATM   17  C   UNL     1     -12.029  14.200  64.290  1.00  0.00    -0.435 A  
ENDBRANCH  12  13
ENDBRANCH   2  12
TORSDOF 2
ENDMDL
MODEL       11
REMARK 921   NORMALIZED FREE ENERGY PREDICTED BY IDOCK:   -5.01 KCAL/MOL
REMARK 922        TOTAL FREE ENERGY PREDICTED BY IDOCK:   -5.90 KCAL/MOL
REMARK 923 INTER-LIGAND FREE ENERGY PREDICTED BY IDOCK:   -5.58 KCAL/MOL
REMARK 924 INTRA-LIGAND FREE ENERGY PREDICTED BY IDOCK:   -0.32 KCAL/MOL
REMARK 927      BINDING AFFINITY PREDICTED BY RF-SCORE:    0.00 PKD
ROOT
HETATM    1  O   UNL     1     -10.108  13.902  65.009  1.00  0.00    -0.514 OA 
HETATM    2  C   UNL     1     -11.063  12.857  65.380  1.00  0.00    -0.281 C  
HETATM    3  H   UNL     1      -9.953  13.833  64.075  1.00  0.00     0.000 HD 
HETATM    4  O   UNL     1     -12.330  14.044  63.287  1.00  0.00    -0.718 OA 
HETATM    5  P   UNL     1     -10.361  11.177  65.193  1.00  0.00    -0.275 P  
HETATM    6  P   UNL     1     -12.628  13.065  64.512  1.00  0.00    -0.205 P  
HETATM    7  O   UNL     1      -8.926  11.817  65.732  1.00  0.00    -0.139 OA 
HETATM    8  O   UNL     1     -10.034  11.527  63.617  1.00  0.00    -0.305 OA 
HETATM    9  O   UNL     1     -13.552  13.987  65.441  1.00  0.00    -0.593 OA 
HETATM   10  O   UNL     1     -13.351  11.843  64.093  1.00  0.00    -0.652 OA 
HETATM   11  O   UNL     1      -9.767   9.756  65.036  1.00  0.00    -0.298 OA 
ENDROOT
BRANCH   2  12
HETATM   12  C   UNL     1     -11.318  12.970  66.911  1.00  0.00    -0.311 C  
BRANCH  12  13
HETATM   13  N   UNL     1     -10.795  14.119  67.636  1.00  0.00    -0.257 NA 
HETATM   14  C   UNL     1      -9.648  14.059  68.399  1.00  0.00    -0.222 A  
HETATM   15  C   UNL     1      -9.517  15.300  68.974  1.00  0.00    -0.232 A  
HETATM   16  N   UNL     1     -10.537  16.112  68.576  1.00  0.00    -0.268 NA 
HETATM   17  C   UNL     1     -11.294  15.378  67.799  1.00  0.00    -0.306 A  
ENDBRANCH  12  13
ENDBRANCH   2  12
TORSDOF 2
ENDMDL
MODEL       12
REMARK 921   NORMALIZED FREE ENERGY PREDICTED BY IDOCK:   -4.96 KCAL/MOL
REMARK 922        TOTAL FREE ENERGY PREDICTED BY IDOCK:   -5.85 KCAL/MOL
REMARK 923 INTER-LIGAND FREE ENERGY PREDICTED BY IDOCK:   -5.64 KCAL/MOL
REMARK 924 INTRA-LIGAND FREE ENERGY PREDICTED BY IDOCK:   -0.21 KCAL/MOL
REMARK 927      BINDING AFFINITY PREDICTED BY RF-SCORE:    0.00 PKD
ROOT
HETATM    1  O   UNL     1     -10.283  14.279  69.624  1.00  0.00    -0.429 OA 
HETATM    2  C   UNL     1     -11.088  14.879  68.558  1.00  0.00    -0.266 C  
HETATM    3  H   UNL     1      -9.494  13.928  69.228  1.00  0.00     0.000 HD 
HETATM    4  O   UNL     1      -8.662  16.032  68.133  1.00  0.00    -0.169 OA 
HETATM    5  P   UNL     1     -11.726  13.629  67.383  1.00  0.00    -0.395 P  
HETATM    6  P   UNL     1     -10.198  16.217  67.743  1.00  0.00    -0.285 P  
HETATM    7  O   UNL     1     -11.923  12.631  68.697  1.00  0.00    -0.304 OA 
HETATM    8  O   UNL     1     -10.178  13.134  67.121  1.00  0.00    -0.241 OA 
HETATM    9  O   UNL     1     -10.567  17.563  68.532  1.00  0.00    -0.357 OA 
HETATM   10  O   UNL     1     -10.393  16.387  66.286  1.00  0.00    -0.311 OA 
HETATM   11  O   UNL     1     -12.267  12.572  66.390  1.00  0.00    -0.584 OA 
ENDROOT
BRANCH   2  12
HETATM   12  C   UNL     1     -12.379  15.454  69.207  1.00  0.00    -0.093 C  
BRANCH  12  13
HETATM   13  N   UNL     1     -12.502  15.466  70.657  1.00  0.00    -0.400 NA 
HETATM   14  C   UNL     1     -13.475  14.753  71.326  1.00  0.00    -0.411 A  
HETATM   15  C   UNL     1     -13.317  15.065  72.655  1.00  0.00    -0.457 A  
HETATM   16  N   UNL     1     -12.277  15.931  72.814  1.00  0.00    -0.453 NA 
HETATM   17  C   UNL     1     -11.825  16.170  71.608  1.00  0.00    -0.487 A  
ENDBRANCH  12  13
ENDBRANCH   2  12
TORSDOF 2
ENDMDL
MODEL       13
REMARK 921   NORMALIZED FREE ENERGY PREDICTED BY IDOCK:   -4.93 KCAL/MOL
REMARK 922        TOTAL FREE ENERGY PREDICTED BY IDOCK:   -5.81 KCAL/MOL
REMARK 923 INTER-LIGAND FREE ENERGY PREDICTED BY IDOCK:   -5.90 KCAL/MOL
REMARK 924 INTRA-LIGAND FREE ENERGY PREDICTED BY IDOCK:    0.09 KCAL/MOL
REMARK 927      BINDING AFFINITY PREDICTED BY RF-SCORE:    0.00 PKD
ROOT
HETATM    1  O   UNL     1      -9.976  13.401  66.587  1.00  0.00    -0.262 OA 
HETATM    2  C   UNL     1     -11.008  14.263  66.009  1.00  0.00    -0.312 C  
HETATM    3  H   UNL     1      -9.257  13.357  65.969  1.00  0.00     0.000 HD 
HETATM    4  O   UNL     1      -8.791  15.818  65.765  1.00  0.00    -0.227 OA 
HETATM    5  P   UNL     1     -11.776  13.523  64.521  1.00  0.00    -0.434 P  
HETATM    6  P   UNL     1     -10.382  15.928  65.721  1.00  0.00    -0.398 P  
HETATM    7  O   UNL     1     -11.651  12.060  65.297  1.00  0.00    -0.336 OA 
HETATM    8  O   UNL     1     -10.277  13.402  63.850  1.00  0.00    -0.252 OA 
HETATM    9  O   UNL     1     -10.681  16.768  67.052  1.00  0.00    -0.270 OA 
HETATM   10  O   UNL     1     -10.864  16.647  64.521  1.00  0.00    -0.847 OA 
HETATM   11  O   UNL     1     -12.427  12.897  63.263  1.00  0.00    -0.685 OA 
ENDROOT
BRANCH   2  12
HETATM   12  C   UNL     1     -12.187  14.336  67.022  1.00  0.00    -0.303 C  
BRANCH  12  13
HETATM   13  N   UNL     1     -12.087  13.614  68.282  1.00  0.00    -0.338 NA 
HETATM   14  C   UNL     1     -12.096  14.250  69.506  1.00  0.00    -0.330 A  
HETATM   15  C   UNL     1     -11.916  13.260  70.441  1.00  0.00    -0.275 A  
HETATM   16  N   UNL     1     -11.811  12.048  69.828  1.00  0.00    -0.328 NA 
HETATM   17  C   UNL     1     -11.893  12.290  68.543  1.00  0.00    -0.307 A  
ENDBRANCH  12  13
ENDBRANCH   2  12
TORSDOF 2
ENDMDL
MODEL       14
REMARK 921   NORMALIZED FREE ENERGY PREDICTED BY IDOCK:   -4.89 KCAL/MOL
REMARK 922        TOTAL FREE ENERGY PREDICTED BY IDOCK:   -5.77 KCAL/MOL
REMARK 923 INTER-LIGAND FREE ENERGY PREDICTED BY IDOCK:   -5.54 KCAL/MOL
REMARK 924 INTRA-LIGAND FREE ENERGY PREDICTED BY IDOCK:   -0.23 KCAL/MOL
REMARK 927      BINDING AFFINITY PREDICTED BY RF-SCORE:    0.00 PKD
ROOT
HETATM    1  O   UNL     1     -12.658  12.895  65.851  1.00  0.00    -0.509 OA 
HETATM    2  C   UNL     1     -11.272  13.034  65.400  1.00  0.00    -0.289 C  
HETATM    3  H   UNL     1     -13.223  13.126  65.124  1.00  0.00     0.000 HD 
HETATM    4  O   UNL     1     -12.340  11.491  63.432  1.00  0.00    -0.352 OA 
HETATM    5  P   UNL     1     -10.825  14.776  65.058  1.00  0.00    -0.417 P  
HETATM    6  P   UNL     1     -10.923  11.935  64.016  1.00  0.00    -0.456 P  
HETATM    7  O   UNL     1     -11.768  15.177  66.366  1.00  0.00    -0.194 OA 
HETATM    8  O   UNL     1     -12.088  14.857  64.004  1.00  0.00    -0.513 OA 
HETATM    9  O   UNL     1     -10.390  10.559  64.643  1.00  0.00    -0.344 OA 
HETATM   10  O   UNL     1     -10.007  12.425  62.961  1.00  0.00    -0.250 OA 
HETATM   11  O   UNL     1     -10.447  16.249  64.770  1.00  0.00    -0.607 OA 
ENDROOT
BRANCH   2  12
HETATM   12  C   UNL     1     -10.347  12.654  66.591  1.00  0.00    -0.236 C  
BRANCH  12  13
HETATM   13  N   UNL     1     -10.934  12.082  67.794  1.00  0.00    -0.220 NA 
HETATM   14  C   UNL     1     -11.261  10.746  67.900  1.00  0.00    -0.318 A  
HETATM   15  C   UNL     1     -11.845  10.603  69.135  1.00  0.00    -0.215 A  
HETATM   16  N   UNL     1     -11.872  11.800  69.785  1.00  0.00    -0.332 NA 
HETATM   17  C   UNL     1     -11.344  12.667  68.956  1.00  0.00    -0.292 A  
ENDBRANCH  12  13
ENDBRANCH   2  12
TORSDOF 2
ENDMDL
MODEL       15
REMARK 921   NORMALIZED FREE ENERGY PREDICTED BY IDOCK:   -4.69 KCAL/MOL
REMARK 922        TOTAL FREE ENERGY PREDICTED BY IDOCK:   -5.55 KCAL/MOL
REMARK 923 INTER-LIGAND FREE ENERGY PREDICTED BY IDOCK:   -5.29 KCAL/MOL
REMARK 924 INTRA-LIGAND FREE ENERGY PREDICTED BY IDOCK:   -0.25 KCAL/MOL
REMARK 927      BINDING AFFINITY PREDICTED BY RF-SCORE:    0.00 PKD
ROOT
HETATM    1  O   UNL     1      -8.788  15.380  66.131  1.00  0.00    -0.394 OA 
HETATM    2  C   UNL     1      -9.245  16.260  67.208  1.00  0.00    -0.208 C  
HETATM    3  H   UNL     1      -7.992  15.754  65.770  1.00  0.00     0.000 HD 
HETATM    4  O   UNL     1      -6.642  15.865  67.887  1.00  0.00    -0.119 OA 
HETATM    5  P   UNL     1      -9.792  17.892  66.585  1.00  0.00    -0.369 P  
HETATM    6  P   UNL     1      -8.013  16.385  68.516  1.00  0.00    -0.226 P  
HETATM    7  O   UNL     1     -10.413  17.081  65.275  1.00  0.00    -0.649 OA 
HETATM    8  O   UNL     1      -8.314  18.082  65.885  1.00  0.00    -0.516 OA 
HETATM    9  O   UNL     1      -8.342  15.223  69.570  1.00  0.00    -0.244 OA 
HETATM   10  O   UNL     1      -7.862  17.690  69.197  1.00  0.00    -0.154 OA 
HETATM   11  O   UNL     1     -10.256  19.272  66.059  1.00  0.00    -0.425 OA 
ENDROOT
BRANCH   2  12
HETATM   12  C   UNL     1     -10.547  15.647  67.798  1.00  0.00    -0.281 C  
BRANCH  12  13
HETATM   13  N   UNL     1     -11.012  14.358  67.308  1.00  0.00    -0.291 NA 
HETATM   14  C   UNL     1     -10.592  13.160  67.849  1.00  0.00    -0.234 A  
HETATM   15  C   UNL     1     -11.185  12.181  67.090  1.00  0.00    -0.314 A  
HETATM   16  N   UNL     1     -11.957  12.742  66.118  1.00  0.00    -0.460 NA 
HETATM   17  C   UNL     1     -11.819  14.037  66.256  1.00  0.00    -0.411 A  
ENDBRANCH  12  13
ENDBRANCH   2  12
TORSDOF 2
ENDMDL
MODEL       16
REMARK 921   NORMALIZED FREE ENERGY PREDICTED BY IDOCK:   -4.58 KCAL/MOL
REMARK 922        TOTAL FREE ENERGY PREDICTED BY IDOCK:   -5.42 KCAL/MOL
REMARK 923 INTER-LIGAND FREE ENERGY PREDICTED BY IDOCK:   -5.15 KCAL/MOL
REMARK 924 INTRA-LIGAND FREE ENERGY PREDICTED BY IDOCK:   -0.28 KCAL/MOL
REMARK 927      BINDING AFFINITY PREDICTED BY RF-SCORE:    0.00 PKD
ROOT
HETATM    1  O   UNL     1     -12.155  11.782  67.325  1.00  0.00    -0.595 OA 
HETATM    2  C   UNL     1     -11.053  12.379  66.570  1.00  0.00    -0.301 C  
HETATM    3  H   UNL     1     -12.906  12.358  67.246  1.00  0.00     0.000 HD 
HETATM    4  O   UNL     1     -13.062  12.422  64.739  1.00  0.00    -0.806 OA 
HETATM    5  P   UNL     1     -10.464  13.941  67.321  1.00  0.00    -0.274 P  
HETATM    6  P   UNL     1     -11.474  12.554  64.827  1.00  0.00    -0.359 P  
HETATM    7  O   UNL     1     -10.736  13.226  68.796  1.00  0.00    -0.247 OA 
HETATM    8  O   UNL     1     -11.999  14.529  67.218  1.00  0.00    -0.405 OA 
HETATM    9  O   UNL     1     -11.001  11.205  64.102  1.00  0.00    -0.358 OA 
HETATM   10  O   UNL     1     -10.966  13.745  64.112  1.00  0.00    -0.317 OA 
HETATM   11  O   UNL     1      -9.965  15.262  67.957  1.00  0.00    -0.222 OA 
ENDROOT
BRANCH   2  12
HETATM   12  C   UNL     1      -9.824  11.434  66.700  1.00  0.00    -0.205 C  
BRANCH  12  13
HETATM   13  N   UNL     1     -10.012  10.091  67.230  1.00  0.00    -0.188 NA 
HETATM   14  C   UNL     1      -9.880   9.796  68.570  1.00  0.00    -0.156 A  
HETATM   15  C   UNL     1     -10.060   8.437  68.671  1.00  0.00    -0.193 A  
HETATM   16  N   UNL     1     -10.307   7.903  67.442  1.00  0.00    -0.253 NA 
HETATM   17  C   UNL     1     -10.250   8.905  66.600  1.00  0.00    -0.268 A  
ENDBRANCH  12  13
ENDBRANCH   2  12
TORSDOF 2
ENDMDL
MODEL       17
REMARK 921   NORMALIZED FREE ENERGY PREDICTED BY IDOCK:   -4.56 KCAL/MOL
REMARK 922        TOTAL FREE ENERGY PREDICTED BY IDOCK:   -5.40 KCAL/MOL
REMARK 923 INTER-LIGAND FREE ENERGY PREDICTED BY IDOCK:   -5.13 KCAL/MOL
REMARK 924 INTRA-LIGAND FREE ENERGY PREDICTED BY IDOCK:   -0.26 KCAL/MOL
REMARK 927      BINDING AFFINITY PREDICTED BY RF-SCORE:    0.00 PKD
ROOT
HETATM    1  O   UNL     1      -9.289  13.156  65.765  1.00  0.00    -0.462 OA 
HETATM    2  C   UNL     1     -10.672  13.324  66.215  1.00  0.00    -0.286 C  
HETATM    3  H   UNL     1      -8.926  14.021  65.617  1.00  0.00     0.000 HD 
HETATM    4  O   UNL     1      -9.337  14.991  67.899  1.00  0.00    -0.181 OA 
HETATM    5  P   UNL     1     -11.749  14.015  64.906  1.00  0.00    -0.428 P  
HETATM    6  P   UNL     1     -10.748  14.261  67.752  1.00  0.00    -0.258 P  
HETATM    7  O   UNL     1     -10.879  13.090  63.833  1.00  0.00    -0.395 OA 
HETATM    8  O   UNL     1     -10.719  15.294  64.782  1.00  0.00    -0.410 OA 
HETATM    9  O   UNL     1     -10.681  13.193  68.946  1.00  0.00    -0.233 OA 
HETATM   10  O   UNL     1     -11.886  15.190  67.937  1.00  0.00    -0.320 OA 
HETATM   11  O   UNL     1     -12.660  14.597  63.798  1.00  0.00    -0.820 OA 
ENDROOT
BRANCH   2  12
HETATM   12  C   UNL     1     -11.267  11.908  66.458  1.00  0.00    -0.327 C  
BRANCH  12  13
HETATM   13  N   UNL     1     -10.377  10.756  66.474  1.00  0.00    -0.238 NA 
HETATM   14  C   UNL     1     -10.063  10.043  65.336  1.00  0.00    -0.247 A  
HETATM   15  C   UNL     1      -9.267   9.004  65.755  1.00  0.00    -0.232 A  
HETATM   16  N   UNL     1      -9.079   9.071  67.103  1.00  0.00    -0.135 NA 
HETATM   17  C   UNL     1      -9.768  10.108  67.508  1.00  0.00    -0.162 A  
ENDBRANCH  12  13
ENDBRANCH   2  12
TORSDOF 2
ENDMDL
MODEL       18
REMARK 921   NORMALIZED FREE ENERGY PREDICTED BY IDOCK:   -4.53 KCAL/MOL
REMARK 922        TOTAL FREE ENERGY PREDICTED BY IDOCK:   -5.37 KCAL/MOL
REMARK 923 INTER-LIGAND FREE ENERGY PREDICTED BY IDOCK:   -5.13 KCAL/MOL
REMARK 924 INTRA-LIGAND FREE ENERGY PREDICTED BY IDOCK:   -0.24 KCAL/MOL
REMARK 927      BINDING AFFINITY PREDICTED BY RF-SCORE:    0.00 PKD
ROOT
HETATM    1  O   UNL     1      -9.570  17.562  65.634  1.00  0.00    -0.510 OA 
HETATM    2  C   UNL     1      -8.844  17.666  66.901  1.00  0.00    -0.246 C  
HETATM    3  H   UNL     1      -9.400  18.354  65.138  1.00  0.00     0.000 HD 
HETATM    4  O   UNL     1      -6.890  18.234  65.097  1.00  0.00    -0.476 OA 
HETATM    5  P   UNL     1      -9.511  18.989  67.976  1.00  0.00    -0.356 P  
HETATM    6  P   UNL     1      -7.070  17.813  66.626  1.00  0.00    -0.273 P  
HETATM    7  O   UNL     1     -11.015  18.554  67.421  1.00  0.00    -0.376 OA 
HETATM    8  O   UNL     1      -9.265  20.061  66.751  1.00  0.00    -0.347 OA 
HETATM    9  O   UNL     1      -6.480  16.323  66.618  1.00  0.00    -0.273 OA 
HETATM   10  O   UNL     1      -6.300  18.682  67.544  1.00  0.00    -0.191 OA 
HETATM   11  O   UNL     1     -10.075  20.107  68.886  1.00  0.00    -0.342 OA 
ENDROOT
BRANCH   2  12
HETATM   12  C   UNL     1      -9.123  16.369  67.713  1.00  0.00    -0.199 C  
BRANCH  12  13
HETATM   13  N   UNL     1      -9.975  15.339  67.138  1.00  0.00    -0.232 NA 
HETATM   14  C   UNL     1     -11.305  15.199  67.476  1.00  0.00    -0.320 A  
HETATM   15  C   UNL     1     -11.749  14.093  66.793  1.00  0.00    -0.410 A  
HETATM   16  N   UNL     1     -10.739  13.566  66.045  1.00  0.00    -0.277 NA 
HETATM   17  C   UNL     1      -9.690  14.313  66.286  1.00  0.00    -0.302 A  
ENDBRANCH  12  13
ENDBRANCH   2  12
TORSDOF 2
ENDMDL
MODEL       19
REMARK 921   NORMALIZED FREE ENERGY PREDICTED BY IDOCK:   -4.43 KCAL/MOL
REMARK 922        TOTAL FREE ENERGY PREDICTED BY IDOCK:   -5.26 KCAL/MOL
REMARK 923 INTER-LIGAND FREE ENERGY PREDICTED BY IDOCK:   -5.41 KCAL/MOL
REMARK 924 INTRA-LIGAND FREE ENERGY PREDICTED BY IDOCK:    0.15 KCAL/MOL
REMARK 927      BINDING AFFINITY PREDICTED BY RF-SCORE:    0.00 PKD
ROOT
HETATM    1  O   UNL     1     -12.353  14.810  66.872  1.00  0.00    -0.403 OA 
HETATM    2  C   UNL     1     -11.480  13.748  66.368  1.00  0.00    -0.336 C  
HETATM    3  H   UNL     1     -12.185  15.591  66.358  1.00  0.00     0.000 HD 
HETATM    4  O   UNL     1     -12.644  14.639  64.077  1.00  0.00    -0.819 OA 
HETATM    5  P   UNL     1      -9.711  14.092  66.690  1.00  0.00    -0.303 P  
HETATM    6  P   UNL     1     -11.821  13.391  64.635  1.00  0.00    -0.441 P  
HETATM    7  O   UNL     1     -10.198  14.737  68.143  1.00  0.00    -0.223 OA 
HETATM    8  O   UNL     1      -9.879  15.523  65.892  1.00  0.00    -0.301 OA 
HETATM    9  O   UNL     1     -12.934  12.238  64.613  1.00  0.00    -0.741 OA 
HETATM   10  O   UNL     1     -10.675  13.038  63.767  1.00  0.00    -0.357 OA 
HETATM   11  O   UNL     1      -8.216  14.383  66.964  1.00  0.00    -0.189 OA 
ENDROOT
BRANCH   2  12
HETATM   12  C   UNL     1     -11.756  12.470  67.210  1.00  0.00    -0.362 C  
BRANCH  12  13
HETATM   13  N   UNL     1     -10.716  11.458  67.328  1.00  0.00    -0.227 NA 
HETATM   14  C   UNL     1     -10.062  11.199  68.514  1.00  0.00    -0.201 A  
HETATM   15  C   UNL     1      -9.118  10.245  68.219  1.00  0.00    -0.139 A  
HETATM   16  N   UNL     1      -9.186   9.910  66.900  1.00  0.00    -0.145 NA 
HETATM   17  C   UNL     1     -10.130  10.661  66.389  1.00  0.00    -0.225 A  
ENDBRANCH  12  13
ENDBRANCH   2  12
TORSDOF 2
ENDMDL
MODEL       20
REMARK 921   NORMALIZED FREE ENERGY PREDICTED BY IDOCK:   -4.38 KCAL/MOL
REMARK 922        TOTAL FREE ENERGY PREDICTED BY IDOCK:   -5.20 KCAL/MOL
REMARK 923 INTER-LIGAND FREE ENERGY PREDICTED BY IDOCK:   -4.92 KCAL/MOL
REMARK 924 INTRA-LIGAND FREE ENERGY PREDICTED BY IDOCK:   -0.28 KCAL/MOL
REMARK 927      BINDING AFFINITY PREDICTED BY RF-SCORE:    0.00 PKD
ROOT
HETATM    1  O   UNL     1      -9.712  17.307  68.803  1.00  0.00    -0.270 OA 
HETATM    2  C   UNL     1      -8.919  17.521  67.591  1.00  0.00    -0.231 C  
HETATM    3  H   UNL     1      -9.754  18.132  69.271  1.00  0.00     0.000 HD 
HETATM    4  O   UNL     1     -10.724  19.549  67.436  1.00  0.00    -0.468 OA 
HETATM    5  P   UNL     1      -7.165  17.884  67.965  1.00  0.00    -0.233 P  
HETATM    6  P   UNL     1      -9.680  18.758  66.525  1.00  0.00    -0.363 P  
HETATM    7  O   UNL     1      -7.297  16.782  69.203  1.00  0.00    -0.238 OA 
HETATM    8  O   UNL     1      -7.660  19.141  68.906  1.00  0.00    -0.339 OA 
HETATM    9  O   UNL     1     -10.657  17.970  65.529  1.00  0.00    -0.639 OA 
HETATM   10  O   UNL     1      -8.783  19.668  65.777  1.00  0.00    -0.398 OA 
HETATM   11  O   UNL     1      -5.680  18.189  68.281  1.00  0.00    -0.163 OA 
ENDROOT
BRANCH   2  12
HETATM   12  C   UNL     1      -8.851  16.169  66.825  1.00  0.00    -0.244 C  
BRANCH  12  13
HETATM   13  N   UNL     1      -9.776  15.103  67.180  1.00  0.00    -0.225 NA 
HETATM   14  C   UNL     1      -9.423  14.056  68.006  1.00  0.00    -0.206 A  
HETATM   15  C   UNL     1     -10.520  13.230  68.049  1.00  0.00    -0.242 A  
HETATM   16  N   UNL     1     -11.527  13.745  67.289  1.00  0.00    -0.324 NA 
HETATM   17  C   UNL     1     -11.050  14.847  66.765  1.00  0.00    -0.335 A  
ENDBRANCH  12  13
ENDBRANCH   2  12
TORSDOF 2
ENDMDL
MODEL       21
REMARK 921   NORMALIZED FREE ENERGY PREDICTED BY IDOCK:   -4.36 KCAL/MOL
REMARK 922        TOTAL FREE ENERGY PREDICTED BY IDOCK:   -5.18 KCAL/MOL
REMARK 923 INTER-LIGAND FREE ENERGY PREDICTED BY IDOCK:   -4.92 KCAL/MOL
REMARK 924 INTRA-LIGAND FREE ENERGY PREDICTED BY IDOCK:   -0.26 KCAL/MOL
REMARK 927      BINDING AFFINITY PREDICTED BY RF-SCORE:    0.00 PKD
ROOT
HETATM    1  O   UNL     1      -9.468  13.679  68.604  1.00  0.00    -0.334 OA 
HETATM    2  C   UNL     1     -10.484  14.559  68.025  1.00  0.00    -0.236 C  
HETATM    3  H   UNL     1      -8.618  14.064  68.427  1.00  0.00     0.000 HD 
HETATM    4  O   UNL     1      -9.003  16.313  69.482  1.00  0.00    -0.145 OA 
HETATM    5  P   UNL     1     -10.411  14.596  66.196  1.00  0.00    -0.334 P  
HETATM    6  P   UNL     1     -10.423  16.202  68.763  1.00  0.00    -0.307 P  
HETATM    7  O   UNL     1     -10.044  12.977  66.271  1.00  0.00    -0.270 OA 
HETATM    8  O   UNL     1      -8.832  15.054  66.304  1.00  0.00    -0.255 OA 
HETATM    9  O   UNL     1     -11.417  16.179  70.020  1.00  0.00    -0.330 OA 
HETATM   10  O   UNL     1     -10.703  17.361  67.887  1.00  0.00    -0.383 OA 
HETATM   11  O   UNL     1     -10.349  14.626  64.650  1.00  0.00    -0.340 OA 
ENDROOT
BRANCH   2  12
HETATM   12  C   UNL     1     -11.877  13.928  68.315  1.00  0.00    -0.376 C  
BRANCH  12  13
HETATM   13  N   UNL     1     -11.974  12.819  69.252  1.00  0.00    -0.276 NA 
HETATM   14  C   UNL     1     -11.836  11.503  68.863  1.00  0.00    -0.341 A  
HETATM   15  C   UNL     1     -12.057  10.755  69.994  1.00  0.00    -0.345 A  
HETATM   16  N   UNL     1     -12.311  11.572  71.055  1.00  0.00    -0.361 NA 
HETATM   17  C   UNL     1     -12.278  12.793  70.581  1.00  0.00    -0.288 A  
ENDBRANCH  12  13
ENDBRANCH   2  12
TORSDOF 2
ENDMDL
MODEL       22
REMARK 921   NORMALIZED FREE ENERGY PREDICTED BY IDOCK:   -4.32 KCAL/MOL
REMARK 922        TOTAL FREE ENERGY PREDICTED BY IDOCK:   -5.13 KCAL/MOL
REMARK 923 INTER-LIGAND FREE ENERGY PREDICTED BY IDOCK:   -4.82 KCAL/MOL
REMARK 924 INTRA-LIGAND FREE ENERGY PREDICTED BY IDOCK:   -0.31 KCAL/MOL
REMARK 927      BINDING AFFINITY PREDICTED BY RF-SCORE:    0.00 PKD
ROOT
HETATM    1  O   UNL     1      -9.458  13.219  65.659  1.00  0.00    -0.483 OA 
HETATM    2  C   UNL     1      -9.833  12.981  67.054  1.00  0.00    -0.238 C  
HETATM    3  H   UNL     1      -9.681  12.440  65.163  1.00  0.00     0.000 HD 
HETATM    4  O   UNL     1     -12.123  12.317  65.746  1.00  0.00    -0.587 OA 
HETATM    5  P   UNL     1      -8.813  11.677  67.834  1.00  0.00    -0.167 P  
HETATM    6  P   UNL     1     -11.602  12.676  67.211  1.00  0.00    -0.346 P  
HETATM    7  O   UNL     1      -7.536  12.284  66.962  1.00  0.00    -0.140 OA 
HETATM    8  O   UNL     1      -9.268  10.649  66.631  1.00  0.00    -0.160 OA 
HETATM    9  O   UNL     1     -12.295  14.101  67.456  1.00  0.00    -0.296 OA 
HETATM   10  O   UNL     1     -12.044  11.691  68.223  1.00  0.00    -0.552 OA 
HETATM   11  O   UNL     1      -7.950  10.575  68.495  1.00  0.00    -0.106 OA 
ENDROOT
BRANCH   2  12
HETATM   12  C   UNL     1      -9.468  14.256  67.866  1.00  0.00    -0.212 C  
BRANCH  12  13
HETATM   13  N   UNL     1      -9.041  15.454  67.157  1.00  0.00    -0.210 NA 
HETATM   14  C   UNL     1      -7.725  15.864  67.114  1.00  0.00    -0.212 A  
HETATM   15  C   UNL     1      -7.727  17.051  66.423  1.00  0.00    -0.315 A  
HETATM   16  N   UNL     1      -8.995  17.367  66.035  1.00  0.00    -0.522 NA 
HETATM   17  C   UNL     1      -9.759  16.412  66.504  1.00  0.00    -0.269 A  
ENDBRANCH  12  13
ENDBRANCH   2  12
TORSDOF 2
ENDMDL
MODEL       23
REMARK 921   NORMALIZED FREE ENERGY PREDICTED BY IDOCK:   -4.30 KCAL/MOL
REMARK 922        TOTAL FREE ENERGY PREDICTED BY IDOCK:   -5.11 KCAL/MOL
REMARK 923 INTER-LIGAND FREE ENERGY PREDICTED BY IDOCK:   -5.40 KCAL/MOL
REMARK 924 INTRA-LIGAND FREE ENERGY PREDICTED BY IDOCK:    0.29 KCAL/MOL
REMARK 927      BINDING AFFINITY PREDICTED BY RF-SCORE:    0.00 PKD
ROOT
HETATM    1  O   UNL     1      -9.836  14.284  64.476  1.00  0.00    -0.612 OA 
HETATM    2  C   UNL     1     -10.568  14.050  65.722  1.00  0.00    -0.299 C  
HETATM    3  H   UNL     1      -9.504  13.447  64.174  1.00  0.00     0.000 HD 
HETATM    4  O   UNL     1     -11.683  12.198  64.071  1.00  0.00    -0.373 OA 
HETATM    5  P   UNL     1      -9.467  13.518  67.084  1.00  0.00    -0.260 P  
HETATM    6  P   UNL     1     -11.955  12.930  65.463  1.00  0.00    -0.467 P  
HETATM    7  O   UNL     1      -8.344  14.575  66.464  1.00  0.00     0.001 OA 
HETATM    8  O   UNL     1      -8.954  12.272  66.137  1.00  0.00    -0.138 OA 
HETATM    9  O   UNL     1     -13.223  13.842  65.102  1.00  0.00    -0.757 OA 
HETATM   10  O   UNL     1     -12.282  11.976  66.547  1.00  0.00    -0.548 OA 
HETATM   11  O   UNL     1      -8.535  13.069  68.236  1.00  0.00    -0.165 OA 
ENDROOT
BRANCH   2  12
HETATM   12  C   UNL     1     -11.113  15.421  66.215  1.00  0.00    -0.226 C  
BRANCH  12  13
HETATM   13  N   UNL     1     -11.178  15.687  67.645  1.00  0.00    -0.309 NA 
HETATM   14  C   UNL     1     -12.027  15.006  68.491  1.00  0.00    -0.225 A  
HETATM   15  C   UNL     1     -11.855  15.575  69.729  1.00  0.00    -0.359 A  
HETATM   16  N   UNL     1     -10.924  16.567  69.665  1.00  0.00    -0.320 NA 
HETATM   17  C   UNL     1     -10.554  16.628  68.410  1.00  0.00    -0.343 A  
ENDBRANCH  12  13
ENDBRANCH   2  12
TORSDOF 2
ENDMDL
MODEL       24
REMARK 921   NORMALIZED FREE ENERGY PREDICTED BY IDOCK:   -4.30 KCAL/MOL
REMARK 922        TOTAL FREE ENERGY PREDICTED BY IDOCK:   -5.11 KCAL/MOL
REMARK 923 INTER-LIGAND FREE ENERGY PREDICTED BY IDOCK:   -4.81 KCAL/MOL
REMARK 924 INTRA-LIGAND FREE ENERGY PREDICTED BY IDOCK:   -0.30 KCAL/MOL
REMARK 927      BINDING AFFINITY PREDICTED BY RF-SCORE:    0.00 PKD
ROOT
HETATM    1  O   UNL     1     -10.906  13.835  68.468  1.00  0.00    -0.248 OA 
HETATM    2  C   UNL     1     -10.377  13.457  67.156  1.00  0.00    -0.246 C  
HETATM    3  H   UNL     1     -11.275  13.056  68.866  1.00  0.00     0.000 HD 
HETATM    4  O   UNL     1      -9.237  11.588  68.769  1.00  0.00    -0.161 OA 
HETATM    5  P   UNL     1     -11.700  12.974  65.987  1.00  0.00    -0.433 P  
HETATM    6  P   UNL     1      -9.085  12.211  67.308  1.00  0.00    -0.195 P  
HETATM    7  O   UNL     1     -12.618  14.177  66.674  1.00  0.00    -0.349 OA 
HETATM    8  O   UNL     1     -12.200  11.842  67.074  1.00  0.00    -0.492 OA 
HETATM    9  O   UNL     1      -7.696  13.000  67.440  1.00  0.00    -0.164 OA 
HETATM   10  O   UNL     1      -9.005  11.171  66.258  1.00  0.00    -0.181 OA 
HETATM   11  O   UNL     1     -12.819  12.566  64.998  1.00  0.00    -0.742 OA 
ENDROOT
BRANCH   2  12
HETATM   12  C   UNL     1      -9.772  14.734  66.505  1.00  0.00    -0.278 C  
BRANCH  12  13
HETATM   13  N   UNL     1      -9.542  15.912  67.328  1.00  0.00    -0.216 NA 
HETATM   14  C   UNL     1     -10.415  16.980  67.358  1.00  0.00    -0.322 A  
HETATM   15  C   UNL     1      -9.833  17.912  68.182  1.00  0.00    -0.334 A  
HETATM   16  N   UNL     1      -8.646  17.443  68.660  1.00  0.00    -0.274 NA 
HETATM   17  C   UNL     1      -8.487  16.261  68.118  1.00  0.00    -0.174 A  
ENDBRANCH  12  13
ENDBRANCH   2  12
TORSDOF 2
ENDMDL
MODEL       25
REMARK 921   NORMALIZED FREE ENERGY PREDICTED BY IDOCK:   -4.28 KCAL/MOL
REMARK 922        TOTAL FREE ENERGY PREDICTED BY IDOCK:   -5.08 KCAL/MOL
REMARK 923 INTER-LIGAND FREE ENERGY PREDICTED BY IDOCK:   -4.79 KCAL/MOL
REMARK 924 INTRA-LIGAND FREE ENERGY PREDICTED BY IDOCK:   -0.29 KCAL/MOL
REMARK 927      BINDING AFFINITY PREDICTED BY RF-SCORE:    0.00 PKD
ROOT
HETATM    1  O   UNL     1      -9.270  12.729  65.705  1.00  0.00    -0.446 OA 
HETATM    2  C   UNL     1      -9.702  12.855  67.098  1.00  0.00    -0.221 C  
HETATM    3  H   UNL     1      -8.550  12.109  65.681  1.00  0.00     0.000 HD 
HETATM    4  O   UNL     1      -9.705  10.157  66.763  1.00  0.00    -0.173 OA 
HETATM    5  P   UNL     1      -8.431  13.647  68.150  1.00  0.00    -0.178 P  
HETATM    6  P   UNL     1     -10.269  11.275  67.751  1.00  0.00    -0.193 P  
HETATM    7  O   UNL     1      -8.089  14.618  66.846  1.00  0.00    -0.167 OA 
HETATM    8  O   UNL     1      -7.366  12.482  67.679  1.00  0.00    -0.109 OA 
HETATM    9  O   UNL     1     -11.843  11.194  67.459  1.00  0.00    -0.591 OA 
HETATM   10  O   UNL     1      -9.978  10.972  69.170  1.00  0.00    -0.195 OA 
HETATM   11  O   UNL     1      -7.356  14.317  69.039  1.00  0.00    -0.124 OA 
ENDROOT
BRANCH   2  12
HETATM   12  C   UNL     1     -10.881  13.869  67.137  1.00  0.00    -0.284 C  
BRANCH  12  13
HETATM   13  N   UNL     1     -11.420  14.382  65.886  1.00  0.00    -0.337 NA 
HETATM   14  C   UNL     1     -11.007  15.576  65.332  1.00  0.00    -0.357 A  
HETATM   15  C   UNL     1     -11.780  15.753  64.209  1.00  0.00    -0.162 A  
HETATM   16  N   UNL     1     -12.636  14.703  64.058  1.00  0.00    -0.805 NA 
HETATM   17  C   UNL     1     -12.416  13.914  65.080  1.00  0.00    -0.453 A  
ENDBRANCH  12  13
ENDBRANCH   2  12
TORSDOF 2
ENDMDL
MODEL       26
REMARK 921   NORMALIZED FREE ENERGY PREDICTED BY IDOCK:   -4.26 KCAL/MOL
REMARK 922        TOTAL FREE ENERGY PREDICTED BY IDOCK:   -5.07 KCAL/MOL
REMARK 923 INTER-LIGAND FREE ENERGY PREDICTED BY IDOCK:   -5.21 KCAL/MOL
REMARK 924 INTRA-LIGAND FREE ENERGY PREDICTED BY IDOCK:    0.14 KCAL/MOL
REMARK 927      BINDING AFFINITY PREDICTED BY RF-SCORE:    0.00 PKD
ROOT
HETATM    1  O   UNL     1      -8.780  12.752  68.617  1.00  0.00    -0.354 OA 
HETATM    2  C   UNL     1     -10.076  12.688  67.939  1.00  0.00    -0.222 C  
HETATM    3  H   UNL     1      -8.940  12.694  69.552  1.00  0.00     0.000 HD 
HETATM    4  O   UNL     1     -10.203  10.521  69.578  1.00  0.00    -0.227 OA 
HETATM    5  P   UNL     1     -11.112  14.157  68.281  1.00  0.00    -0.283 P  
HETATM    6  P   UNL     1     -10.920  11.136  68.292  1.00  0.00    -0.278 P  
HETATM    7  O   UNL     1      -9.708  15.044  68.229  1.00  0.00    -0.206 OA 
HETATM    8  O   UNL     1     -10.964  13.844  69.892  1.00  0.00    -0.030 OA 
HETATM    9  O   UNL     1     -10.476  10.101  67.153  1.00  0.00    -0.224 OA 
HETATM   10  O   UNL     1     -12.393  11.170  68.431  1.00  0.00    -0.556 OA 
HETATM   11  O   UNL     1     -11.988  15.401  68.570  1.00  0.00    -0.316 OA 
ENDROOT
BRANCH   2  12
HETATM   12  C   UNL     1      -9.814  12.783  66.409  1.00  0.00    -0.269 C  
BRANCH  12  13
HETATM   13  N   UNL     1     -10.884  13.229  65.530  1.00  0.00    -0.281 NA 
HETATM   14  C   UNL     1     -10.885  14.471  64.929  1.00  0.00    -0.421 A  
HETATM   15  C   UNL     1     -12.072  14.552  64.244  1.00  0.00    -0.425 A  
HETATM   16  N   UNL     1     -12.784  13.401  64.398  1.00  0.00    -0.662 NA 
HETATM   17  C   UNL     1     -12.065  12.640  65.185  1.00  0.00    -0.455 A  
ENDBRANCH  12  13
ENDBRANCH   2  12
TORSDOF 2
ENDMDL
MODEL       27
REMARK 921   NORMALIZED FREE ENERGY PREDICTED BY IDOCK:   -4.25 KCAL/MOL
REMARK 922        TOTAL FREE ENERGY PREDICTED BY IDOCK:   -5.05 KCAL/MOL
REMARK 923 INTER-LIGAND FREE ENERGY PREDICTED BY IDOCK:   -4.75 KCAL/MOL
REMARK 924 INTRA-LIGAND FREE ENERGY PREDICTED BY IDOCK:   -0.30 KCAL/MOL
REMARK 927      BINDING AFFINITY PREDICTED BY RF-SCORE:    0.00 PKD
ROOT
HETATM    1  O   UNL     1      -9.189  14.715  67.842  1.00  0.00    -0.189 OA 
HETATM    2  C   UNL     1     -10.577  15.111  67.596  1.00  0.00    -0.263 C  
HETATM    3  H   UNL     1      -9.167  13.769  67.915  1.00  0.00     0.000 HD 
HETATM    4  O   UNL     1     -10.203  13.202  65.696  1.00  0.00    -0.281 OA 
HETATM    5  P   UNL     1     -11.660  14.775  69.033  1.00  0.00    -0.320 P  
HETATM    6  P   UNL     1     -11.198  14.393  66.065  1.00  0.00    -0.344 P  
HETATM    7  O   UNL     1     -10.376  15.221  69.988  1.00  0.00    -0.273 OA 
HETATM    8  O   UNL     1     -11.190  13.197  68.974  1.00  0.00    -0.248 OA 
HETATM    9  O   UNL     1     -10.881  15.447  64.900  1.00  0.00    -0.421 OA 
HETATM   10  O   UNL     1     -12.617  13.974  66.027  1.00  0.00    -0.481 OA 
HETATM   11  O   UNL     1     -12.576  14.491  70.248  1.00  0.00    -0.344 OA 
ENDROOT
BRANCH   2  12
HETATM   12  C   UNL     1     -10.612  16.662  67.476  1.00  0.00    -0.311 C  
BRANCH  12  13
HETATM   13  N   UNL     1      -9.359  17.402  67.445  1.00  0.00    -0.235 NA 
HETATM   14  C   UNL     1      -8.912  18.153  68.512  1.00  0.00    -0.296 A  
HETATM   15  C   UNL     1      -7.749  18.748  68.087  1.00  0.00    -0.285 A  
HETATM   16  N   UNL     1      -7.471  18.375  66.806  1.00  0.00    -0.212 NA 
HETATM   17  C   UNL     1      -8.456  17.592  66.441  1.00  0.00    -0.246 A  
ENDBRANCH  12  13
ENDBRANCH   2  12
TORSDOF 2
ENDMDL
MODEL       28
REMARK 921   NORMALIZED FREE ENERGY PREDICTED BY IDOCK:   -4.24 KCAL/MOL
REMARK 922        TOTAL FREE ENERGY PREDICTED BY IDOCK:   -5.05 KCAL/MOL
REMARK 923 INTER-LIGAND FREE ENERGY PREDICTED BY IDOCK:   -5.39 KCAL/MOL
REMARK 924 INTRA-LIGAND FREE ENERGY PREDICTED BY IDOCK:    0.34 KCAL/MOL
REMARK 927      BINDING AFFINITY PREDICTED BY RF-SCORE:    0.00 PKD
ROOT
HETATM    1  O   UNL     1      -9.314  12.761  66.157  1.00  0.00    -0.387 OA 
HETATM    2  C   UNL     1     -10.505  13.458  66.645  1.00  0.00    -0.280 C  
HETATM    3  H   UNL     1      -9.605  12.022  65.637  1.00  0.00     0.000 HD 
HETATM    4  O   UNL     1     -11.029  13.270  63.984  1.00  0.00    -0.382 OA 
HETATM    5  P   UNL     1     -11.458  12.451  67.840  1.00  0.00    -0.360 P  
HETATM    6  P   UNL     1     -11.511  14.065  65.280  1.00  0.00    -0.356 P  
HETATM    7  O   UNL     1      -9.994  11.911  68.412  1.00  0.00    -0.197 OA 
HETATM    8  O   UNL     1     -11.559  11.262  66.705  1.00  0.00    -0.433 OA 
HETATM    9  O   UNL     1     -10.998  15.548  64.954  1.00  0.00    -0.419 OA 
HETATM   10  O   UNL     1     -12.982  14.038  65.443  1.00  0.00    -0.726 OA 
HETATM   11  O   UNL     1     -12.264  11.599  68.852  1.00  0.00    -0.377 OA 
ENDROOT
BRANCH   2  12
HETATM   12  C   UNL     1     -10.028  14.669  67.498  1.00  0.00    -0.223 C  
BRANCH  12  13
HETATM   13  N   UNL     1     -10.813  15.079  68.653  1.00  0.00    -0.241 NA 
HETATM   14  C   UNL     1     -10.288  15.131  69.928  1.00  0.00    -0.189 A  
HETATM   15  C   UNL     1     -11.333  15.488  70.746  1.00  0.00    -0.355 A  
HETATM   16  N   UNL     1     -12.466  15.665  70.011  1.00  0.00    -0.306 NA 
HETATM   17  C   UNL     1     -12.134  15.393  68.773  1.00  0.00    -0.155 A  
ENDBRANCH  12  13
ENDBRANCH   2  12
TORSDOF 2
ENDMDL
MODEL       29
REMARK 921   NORMALIZED FREE ENERGY PREDICTED BY IDOCK:   -4.22 KCAL/MOL
REMARK 922        TOTAL FREE ENERGY PREDICTED BY IDOCK:   -5.03 KCAL/MOL
REMARK 923 INTER-LIGAND FREE ENERGY PREDICTED BY IDOCK:   -4.78 KCAL/MOL
REMARK 924 INTRA-LIGAND FREE ENERGY PREDICTED BY IDOCK:   -0.25 KCAL/MOL
REMARK 927      BINDING AFFINITY PREDICTED BY RF-SCORE:    0.00 PKD
ROOT
HETATM    1  O   UNL     1      -9.557  13.187  64.495  1.00  0.00    -0.477 OA 
HETATM    2  C   UNL     1     -10.689  12.786  65.333  1.00  0.00    -0.284 C  
HETATM    3  H   UNL     1      -9.799  13.989  64.047  1.00  0.00     0.000 HD 
HETATM    4  O   UNL     1     -10.358  15.386  66.060  1.00  0.00    -0.287 OA 
HETATM    5  P   UNL     1     -12.145  12.291  64.341  1.00  0.00    -0.361 P  
HETATM    6  P   UNL     1     -11.072  14.049  66.560  1.00  0.00    -0.330 P  
HETATM    7  O   UNL     1     -11.070  11.612  63.272  1.00  0.00    -0.354 OA 
HETATM    8  O   UNL     1     -12.099  13.761  63.601  1.00  0.00    -0.486 OA 
HETATM    9  O   UNL     1     -10.212  13.697  67.866  1.00  0.00    -0.239 OA 
HETATM   10  O   UNL     1     -12.494  14.265  66.905  1.00  0.00    -0.338 OA 
HETATM   11  O   UNL     1     -13.377  11.871  63.503  1.00  0.00    -0.605 OA 
ENDROOT
BRANCH   2  12
HETATM   12  C   UNL     1     -10.292  11.474  66.067  1.00  0.00    -0.246 C  
BRANCH  12  13
HETATM   13  N   UNL     1      -8.947  10.943  65.898  1.00  0.00    -0.187 NA 
HETATM   14  C   UNL     1      -7.899  11.296  66.723  1.00  0.00    -0.155 A  
HETATM   15  C   UNL     1      -6.794  10.656  66.215  1.00  0.00    -0.133 A  
HETATM   16  N   UNL     1      -7.138   9.920  65.122  1.00  0.00    -0.122 NA 
HETATM   17  C   UNL     1      -8.419  10.126  64.942  1.00  0.00    -0.172 A  
ENDBRANCH  12  13
ENDBRANCH   2  12
TORSDOF 2
ENDMDL
MODEL       30
REMARK 921   NORMALIZED FREE ENERGY PREDICTED BY IDOCK:   -4.19 KCAL/MOL
REMARK 922        TOTAL FREE ENERGY PREDICTED BY IDOCK:   -4.99 KCAL/MOL
REMARK 923 INTER-LIGAND FREE ENERGY PREDICTED BY IDOCK:   -4.81 KCAL/MOL
REMARK 924 INTRA-LIGAND FREE ENERGY PREDICTED BY IDOCK:   -0.18 KCAL/MOL
REMARK 927      BINDING AFFINITY PREDICTED BY RF-SCORE:    0.00 PKD
ROOT
HETATM    1  O   UNL     1     -11.014  16.468  67.343  1.00  0.00    -0.248 OA 
HETATM    2  C   UNL     1     -10.141  15.587  68.120  1.00  0.00    -0.218 C  
HETATM    3  H   UNL     1     -10.988  17.329  67.745  1.00  0.00     0.000 HD 
HETATM    4  O   UNL     1      -8.505  17.707  67.647  1.00  0.00    -0.220 OA 
HETATM    5  P   UNL     1     -10.783  15.285  69.807  1.00  0.00    -0.277 P  
HETATM    6  P   UNL     1      -8.440  16.183  68.113  1.00  0.00    -0.185 P  
HETATM    7  O   UNL     1     -12.299  15.272  69.127  1.00  0.00    -0.190 OA 
HETATM    8  O   UNL     1     -10.806  16.913  70.053  1.00  0.00    -0.219 OA 
HETATM    9  O   UNL     1      -7.717  15.495  66.859  1.00  0.00    -0.218 OA 
HETATM   10  O   UNL     1      -7.643  16.004  69.347  1.00  0.00    -0.232 OA 
HETATM   11  O   UNL     1     -11.327  15.028  71.233  1.00  0.00    -0.320 OA 
ENDROOT
BRANCH   2  12
HETATM   12  C   UNL     1     -10.184  14.178  67.462  1.00  0.00    -0.241 C  
BRANCH  12  13
HETATM   13  N   UNL     1     -11.048  13.957  66.312  1.00  0.00    -0.302 NA 
HETATM   14  C   UNL     1     -10.634  14.183  65.016  1.00  0.00    -0.419 A  
HETATM   15  C   UNL     1     -11.729  13.933  64.226  1.00  0.00    -0.380 A  
HETATM   16  N   UNL     1     -12.787  13.551  64.995  1.00  0.00    -0.727 NA 
HETATM   17  C   UNL     1     -12.361  13.595  66.233  1.00  0.00    -0.412 A  
ENDBRANCH  12  13
ENDBRANCH   2  12
TORSDOF 2
ENDMDL
MODEL       31
REMARK 921   NORMALIZED FREE ENERGY PREDICTED BY IDOCK:   -4.18 KCAL/MOL
REMARK 922        TOTAL FREE ENERGY PREDICTED BY IDOCK:   -4.98 KCAL/MOL
REMARK 923 INTER-LIGAND FREE ENERGY PREDICTED BY IDOCK:   -4.73 KCAL/MOL
REMARK 924 INTRA-LIGAND FREE ENERGY PREDICTED BY IDOCK:   -0.25 KCAL/MOL
REMARK 927      BINDING AFFINITY PREDICTED BY RF-SCORE:    0.00 PKD
ROOT
HETATM    1  O   UNL     1      -9.337  13.586  67.280  1.00  0.00    -0.216 OA 
HETATM    2  C   UNL     1     -10.655  14.222  67.250  1.00  0.00    -0.278 C  
HETATM    3  H   UNL     1      -8.687  14.273  67.370  1.00  0.00     0.000 HD 
HETATM    4  O   UNL     1      -9.558  15.334  69.476  1.00  0.00    -0.243 OA 
HETATM    5  P   UNL     1     -10.903  15.236  65.746  1.00  0.00    -0.346 P  
HETATM    6  P   UNL     1     -10.975  15.134  68.771  1.00  0.00    -0.289 P  
HETATM    7  O   UNL     1     -10.052  14.065  64.930  1.00  0.00    -0.380 OA 
HETATM    8  O   UNL     1      -9.545  16.083  66.136  1.00  0.00    -0.285 OA 
HETATM    9  O   UNL     1     -11.691  14.112  69.778  1.00  0.00    -0.276 OA 
HETATM   10  O   UNL     1     -11.738  16.398  68.669  1.00  0.00    -0.255 OA 
HETATM   11  O   UNL     1     -11.112  16.093  64.474  1.00  0.00    -0.634 OA 
ENDROOT
BRANCH   2  12
HETATM   12  C   UNL     1     -11.720  13.098  67.103  1.00  0.00    -0.377 C  
BRANCH  12  13
HETATM   13  N   UNL     1     -11.328  11.714  67.326  1.00  0.00    -0.377 NA 
HETATM   14  C   UNL     1     -10.845  10.906  66.317  1.00  0.00    -0.124 A  
HETATM   15  C   UNL     1     -10.653   9.671  66.889  1.00  0.00    -0.171 A  
HETATM   16  N   UNL     1     -10.992   9.706  68.208  1.00  0.00    -0.172 NA 
HETATM   17  C   UNL     1     -11.412  10.926  68.436  1.00  0.00    -0.304 A  
ENDBRANCH  12  13
ENDBRANCH   2  12
TORSDOF 2
ENDMDL
MODEL       32
REMARK 921   NORMALIZED FREE ENERGY PREDICTED BY IDOCK:   -4.18 KCAL/MOL
REMARK 922        TOTAL FREE ENERGY PREDICTED BY IDOCK:   -4.97 KCAL/MOL
REMARK 923 INTER-LIGAND FREE ENERGY PREDICTED BY IDOCK:   -5.10 KCAL/MOL
REMARK 924 INTRA-LIGAND FREE ENERGY PREDICTED BY IDOCK:    0.12 KCAL/MOL
REMARK 927      BINDING AFFINITY PREDICTED BY RF-SCORE:    0.00 PKD
ROOT
HETATM    1  O   UNL     1     -11.790  11.269  66.986  1.00  0.00    -0.484 OA 
HETATM    2  C   UNL     1     -10.995  12.420  66.555  1.00  0.00    -0.272 C  
HETATM    3  H   UNL     1     -11.219  10.510  66.997  1.00  0.00     0.000 HD 
HETATM    4  O   UNL     1      -9.451  11.399  68.547  1.00  0.00    -0.182 OA 
HETATM    5  P   UNL     1     -10.455  12.276  64.812  1.00  0.00    -0.321 P  
HETATM    6  P   UNL     1      -9.631  12.733  67.689  1.00  0.00    -0.205 P  
HETATM    7  O   UNL     1     -11.935  11.584  64.507  1.00  0.00    -0.078 OA 
HETATM    8  O   UNL     1      -9.753  10.833  65.185  1.00  0.00    -0.225 OA 
HETATM    9  O   UNL     1     -10.177  13.754  68.796  1.00  0.00    -0.226 OA 
HETATM   10  O   UNL     1      -8.353  13.209  67.114  1.00  0.00    -0.181 OA 
HETATM   11  O   UNL     1      -9.999  12.155  63.338  1.00  0.00    -0.407 OA 
ENDROOT
BRANCH   2  12
HETATM   12  C   UNL     1     -11.932  13.662  66.538  1.00  0.00    -0.424 C  
BRANCH  12  13
HETATM   13  N   UNL     1     -11.612  14.782  65.666  1.00  0.00    -0.324 NA 
HETATM   14  C   UNL     1     -10.703  15.760  66.012  1.00  0.00    -0.306 A  
HETATM   15  C   UNL     1     -10.723  16.669  64.982  1.00  0.00    -0.152 A  
HETATM   16  N   UNL     1     -11.601  16.270  64.020  1.00  0.00    -1.007 NA 
HETATM   17  C   UNL     1     -12.133  15.157  64.462  1.00  0.00    -0.301 A  
ENDBRANCH  12  13
ENDBRANCH   2  12
TORSDOF 2
ENDMDL
MODEL       33
REMARK 921   NORMALIZED FREE ENERGY PREDICTED BY IDOCK:   -4.17 KCAL/MOL
REMARK 922        TOTAL FREE ENERGY PREDICTED BY IDOCK:   -4.96 KCAL/MOL
REMARK 923 INTER-LIGAND FREE ENERGY PREDICTED BY IDOCK:   -5.28 KCAL/MOL
REMARK 924 INTRA-LIGAND FREE ENERGY PREDICTED BY IDOCK:    0.32 KCAL/MOL
REMARK 927      BINDING AFFINITY PREDICTED BY RF-SCORE:    0.00 PKD
ROOT
HETATM    1  O   UNL     1      -8.399  15.052  66.469  1.00  0.00    -0.405 OA 
HETATM    2  C   UNL     1      -9.578  15.547  67.182  1.00  0.00    -0.222 C  
HETATM    3  H   UNL     1      -8.429  15.400  65.586  1.00  0.00     0.000 HD 
HETATM    4  O   UNL     1      -8.551  17.845  66.153  1.00  0.00    -0.449 OA 
HETATM    5  P   UNL     1     -11.135  14.858  66.510  1.00  0.00    -0.303 P  
HETATM    6  P   UNL     1      -9.584  17.347  67.262  1.00  0.00    -0.274 P  
HETATM    7  O   UNL     1     -10.303  13.437  66.291  1.00  0.00    -0.280 OA 
HETATM    8  O   UNL     1     -10.715  15.442  65.029  1.00  0.00    -0.405 OA 
HETATM    9  O   UNL     1      -8.821  17.750  68.613  1.00  0.00    -0.294 OA 
HETATM   10  O   UNL     1     -10.890  18.036  67.166  1.00  0.00    -0.312 OA 
HETATM   11  O   UNL     1     -12.452  14.275  65.943  1.00  0.00    -0.437 OA 
ENDROOT
BRANCH   2  12
HETATM   12  C   UNL     1      -9.529  14.978  68.629  1.00  0.00    -0.212 C  
BRANCH  12  13
HETATM   13  N   UNL     1     -10.712  15.073  69.471  1.00  0.00    -0.250 NA 
HETATM   14  C   UNL     1     -11.652  14.067  69.550  1.00  0.00    -0.295 A  
HETATM   15  C   UNL     1     -12.640  14.543  70.378  1.00  0.00    -0.346 A  
HETATM   16  N   UNL     1     -12.325  15.796  70.812  1.00  0.00    -0.417 NA 
HETATM   17  C   UNL     1     -11.185  16.095  70.240  1.00  0.00    -0.381 A  
ENDBRANCH  12  13
ENDBRANCH   2  12
TORSDOF 2
ENDMDL
MODEL       34
REMARK 921   NORMALIZED FREE ENERGY PREDICTED BY IDOCK:   -4.16 KCAL/MOL
REMARK 922        TOTAL FREE ENERGY PREDICTED BY IDOCK:   -4.95 KCAL/MOL
REMARK 923 INTER-LIGAND FREE ENERGY PREDICTED BY IDOCK:   -4.65 KCAL/MOL
REMARK 924 INTRA-LIGAND FREE ENERGY PREDICTED BY IDOCK:   -0.30 KCAL/MOL
REMARK 927      BINDING AFFINITY PREDICTED BY RF-SCORE:    0.00 PKD
ROOT
HETATM    1  O   UNL     1      -9.135  12.382  65.737  1.00  0.00    -0.437 OA 
HETATM    2  C   UNL     1     -10.392  11.646  65.882  1.00  0.00    -0.248 C  
HETATM    3  H   UNL     1      -9.210  13.184  66.240  1.00  0.00     0.000 HD 
HETATM    4  O   UNL     1      -9.758  12.169  68.474  1.00  0.00    -0.206 OA 
HETATM    5  P   UNL     1     -11.798  12.509  65.090  1.00  0.00    -0.398 P  
HETATM    6  P   UNL     1     -10.707  11.225  67.605  1.00  0.00    -0.262 P  
HETATM    7  O   UNL     1     -10.731  12.955  63.896  1.00  0.00    -0.406 OA 
HETATM    8  O   UNL     1     -11.461  13.831  66.013  1.00  0.00    -0.313 OA 
HETATM    9  O   UNL     1     -10.045   9.788  67.857  1.00  0.00    -0.157 OA 
HETATM   10  O   UNL     1     -12.110  11.251  68.074  1.00  0.00    -0.638 OA 
HETATM   11  O   UNL     1     -12.987  13.239  64.419  1.00  0.00    -0.640 OA 
ENDROOT
BRANCH   2  12
HETATM   12  C   UNL     1     -10.268  10.332  65.057  1.00  0.00    -0.207 C  
BRANCH  12  13
HETATM   13  N   UNL     1      -8.975   9.962  64.499  1.00  0.00    -0.216 NA 
HETATM   14  C   UNL     1      -8.701  10.031  63.149  1.00  0.00    -0.217 A  
HETATM   15  C   UNL     1      -7.425   9.543  63.003  1.00  0.00    -0.108 A  
HETATM   16  N   UNL     1      -6.914   9.193  64.216  1.00  0.00    -0.090 NA 
HETATM   17  C   UNL     1      -7.865   9.431  65.086  1.00  0.00    -0.110 A  
ENDBRANCH  12  13
ENDBRANCH   2  12
TORSDOF 2
ENDMDL
MODEL       35
REMARK 921   NORMALIZED FREE ENERGY PREDICTED BY IDOCK:   -4.15 KCAL/MOL
REMARK 922        TOTAL FREE ENERGY PREDICTED BY IDOCK:   -4.94 KCAL/MOL
REMARK 923 INTER-LIGAND FREE ENERGY PREDICTED BY IDOCK:   -4.64 KCAL/MOL
REMARK 924 INTRA-LIGAND FREE ENERGY PREDICTED BY IDOCK:   -0.30 KCAL/MOL
REMARK 927      BINDING AFFINITY PREDICTED BY RF-SCORE:    0.00 PKD
ROOT
HETATM    1  O   UNL     1      -9.465  16.448  68.521  1.00  0.00    -0.212 OA 
HETATM    2  C   UNL     1      -9.040  15.552  67.444  1.00  0.00    -0.199 C  
HETATM    3  H   UNL     1      -9.483  15.944  69.326  1.00  0.00     0.000 HD 
HETATM    4  O   UNL     1      -7.105  15.131  69.307  1.00  0.00    -0.142 OA 
HETATM    5  P   UNL     1     -10.278  14.248  67.098  1.00  0.00    -0.258 P  
HETATM    6  P   UNL     1      -7.394  14.891  67.756  1.00  0.00    -0.196 P  
HETATM    7  O   UNL     1     -11.438  15.401  67.390  1.00  0.00    -0.303 OA 
HETATM    8  O   UNL     1     -10.194  13.796  68.679  1.00  0.00    -0.232 OA 
HETATM    9  O   UNL     1      -6.355  15.905  67.077  1.00  0.00    -0.309 OA 
HETATM   10  O   UNL     1      -7.121  13.497  67.340  1.00  0.00    -0.163 OA 
HETATM   11  O   UNL     1     -11.324  13.146  66.804  1.00  0.00    -0.293 OA 
ENDROOT
BRANCH   2  12
HETATM   12  C   UNL     1      -9.011  16.377  66.126  1.00  0.00    -0.332 C  
BRANCH  12  13
HETATM   13  N   UNL     1      -9.221  17.816  66.182  1.00  0.00    -0.495 NA 
HETATM   14  C   UNL     1     -10.457  18.396  65.986  1.00  0.00    -0.374 A  
HETATM   15  C   UNL     1     -10.246  19.752  66.046  1.00  0.00    -0.501 A  
HETATM   16  N   UNL     1      -8.930  20.013  66.284  1.00  0.00    -0.339 NA 
HETATM   17  C   UNL     1      -8.340  18.845  66.338  1.00  0.00    -0.296 A  
ENDBRANCH  12  13
ENDBRANCH   2  12
TORSDOF 2
ENDMDL
MODEL       36
REMARK 921   NORMALIZED FREE ENERGY PREDICTED BY IDOCK:   -4.15 KCAL/MOL
REMARK 922        TOTAL FREE ENERGY PREDICTED BY IDOCK:   -4.94 KCAL/MOL
REMARK 923 INTER-LIGAND FREE ENERGY PREDICTED BY IDOCK:   -4.66 KCAL/MOL
REMARK 924 INTRA-LIGAND FREE ENERGY PREDICTED BY IDOCK:   -0.27 KCAL/MOL
REMARK 927      BINDING AFFINITY PREDICTED BY RF-SCORE:    0.00 PKD
ROOT
HETATM    1  O   UNL     1     -11.352   7.675  69.208  1.00  0.00    -0.429 OA 
HETATM    2  C   UNL     1     -10.661   8.133  70.414  1.00  0.00    -0.232 C  
HETATM    3  H   UNL     1     -11.636   6.781  69.359  1.00  0.00     0.000 HD 
HETATM    4  O   UNL     1     -12.987   7.169  71.443  1.00  0.00    -0.381 OA 
HETATM    5  P   UNL     1      -9.092   7.236  70.700  1.00  0.00    -0.156 P  
HETATM    6  P   UNL     1     -11.757   8.103  71.844  1.00  0.00    -0.362 P  
HETATM    7  O   UNL     1      -8.889   7.255  69.051  1.00  0.00    -0.132 OA 
HETATM    8  O   UNL     1      -9.936   5.822  70.674  1.00  0.00    -0.179 OA 
HETATM    9  O   UNL     1     -12.459   9.542  71.917  1.00  0.00    -0.369 OA 
HETATM   10  O   UNL     1     -11.172   7.733  73.152  1.00  0.00    -0.402 OA 
HETATM   11  O   UNL     1      -7.764   6.477  70.941  1.00  0.00    -0.097 OA 
ENDROOT
BRANCH   2  12
HETATM   12  C   UNL     1     -10.197   9.597  70.166  1.00  0.00    -0.264 C  
BRANCH  12  13
HETATM   13  N   UNL     1     -10.754  10.340  69.045  1.00  0.00    -0.214 NA 
HETATM   14  C   UNL     1     -10.136  10.404  67.814  1.00  0.00    -0.181 A  
HETATM   15  C   UNL     1     -10.914  11.239  67.049  1.00  0.00    -0.294 A  
HETATM   16  N   UNL     1     -11.986  11.672  67.770  1.00  0.00    -0.623 NA 
HETATM   17  C   UNL     1     -11.855  11.141  68.959  1.00  0.00    -0.348 A  
ENDBRANCH  12  13
ENDBRANCH   2  12
TORSDOF 2
ENDMDL
MODEL       37
REMARK 921   NORMALIZED FREE ENERGY PREDICTED BY IDOCK:   -4.14 KCAL/MOL
REMARK 922        TOTAL FREE ENERGY PREDICTED BY IDOCK:   -4.93 KCAL/MOL
REMARK 923 INTER-LIGAND FREE ENERGY PREDICTED BY IDOCK:   -5.65 KCAL/MOL
REMARK 924 INTRA-LIGAND FREE ENERGY PREDICTED BY IDOCK:    0.72 KCAL/MOL
REMARK 927      BINDING AFFINITY PREDICTED BY RF-SCORE:    0.00 PKD
ROOT
HETATM    1  O   UNL     1     -12.013  14.759  67.292  1.00  0.00    -0.438 OA 
HETATM    2  C   UNL     1     -10.682  14.935  66.710  1.00  0.00    -0.312 C  
HETATM    3  H   UNL     1     -11.940  14.901  68.229  1.00  0.00     0.000 HD 
HETATM    4  O   UNL     1     -10.948  17.210  68.176  1.00  0.00    -0.361 OA 
HETATM    5  P   UNL     1      -9.512  13.633  67.245  1.00  0.00    -0.248 P  
HETATM    6  P   UNL     1     -10.058  16.600  67.000  1.00  0.00    -0.292 P  
HETATM    7  O   UNL     1     -10.792  12.577  67.159  1.00  0.00    -0.240 OA 
HETATM    8  O   UNL     1      -9.830  14.038  68.809  1.00  0.00    -0.213 OA 
HETATM    9  O   UNL     1     -10.524  17.490  65.752  1.00  0.00    -0.535 OA 
HETATM   10  O   UNL     1      -8.608  16.759  67.251  1.00  0.00    -0.186 OA 
HETATM   11  O   UNL     1      -8.523  12.531  67.696  1.00  0.00    -0.150 OA 
ENDROOT
BRANCH   2  12
HETATM   12  C   UNL     1     -10.801  14.701  65.177  1.00  0.00    -0.401 C  
BRANCH  12  13
HETATM   13  N   UNL     1     -11.607  13.593  64.687  1.00  0.00    -0.356 NA 
HETATM   14  C   UNL     1     -11.169  12.732  63.702  1.00  0.00    -0.427 A  
HETATM   15  C   UNL     1     -12.215  11.875  63.464  1.00  0.00    -0.482 A  
HETATM   16  N   UNL     1     -13.266  12.179  64.276  1.00  0.00    -0.725 NA 
HETATM   17  C   UNL     1     -12.886  13.218  64.977  1.00  0.00    -0.289 A  
ENDBRANCH  12  13
ENDBRANCH   2  12
TORSDOF 2
ENDMDL
MODEL       38
REMARK 921   NORMALIZED FREE ENERGY PREDICTED BY IDOCK:   -4.14 KCAL/MOL
REMARK 922        TOTAL FREE ENERGY PREDICTED BY IDOCK:   -4.93 KCAL/MOL
REMARK 923 INTER-LIGAND FREE ENERGY PREDICTED BY IDOCK:   -5.45 KCAL/MOL
REMARK 924 INTRA-LIGAND FREE ENERGY PREDICTED BY IDOCK:    0.52 KCAL/MOL
REMARK 927      BINDING AFFINITY PREDICTED BY RF-SCORE:    0.00 PKD
ROOT
HETATM    1  O   UNL     1     -12.280  11.813  67.344  1.00  0.00    -0.501 OA 
HETATM    2  C   UNL     1     -11.332  12.786  66.799  1.00  0.00    -0.313 C  
HETATM    3  H   UNL     1     -11.968  10.946  67.116  1.00  0.00     0.000 HD 
HETATM    4  O   UNL     1      -9.678  11.096  68.141  1.00  0.00    -0.169 OA 
HETATM    5  P   UNL     1     -11.333  12.807  64.969  1.00  0.00    -0.342 P  
HETATM    6  P   UNL     1      -9.687  12.556  67.498  1.00  0.00    -0.207 P  
HETATM    7  O   UNL     1     -12.975  12.565  65.060  1.00  0.00    -0.779 OA 
HETATM    8  O   UNL     1     -11.001  11.194  64.985  1.00  0.00    -0.218 OA 
HETATM    9  O   UNL     1      -9.608  13.481  68.804  1.00  0.00    -0.125 OA 
HETATM   10  O   UNL     1      -8.525  12.790  66.612  1.00  0.00    -0.094 OA 
HETATM   11  O   UNL     1     -11.335  12.825  63.421  1.00  0.00    -0.472 OA 
ENDROOT
BRANCH   2  12
HETATM   12  C   UNL     1     -11.844  14.207  67.174  1.00  0.00    -0.423 C  
BRANCH  12  13
HETATM   13  N   UNL     1     -10.996  15.360  66.914  1.00  0.00    -0.315 NA 
HETATM   14  C   UNL     1     -10.700  16.299  67.880  1.00  0.00    -0.329 A  
HETATM   15  C   UNL     1      -9.944  17.257  67.249  1.00  0.00    -0.283 A  
HETATM   16  N   UNL     1      -9.762  16.926  65.940  1.00  0.00    -0.517 NA 
HETATM   17  C   UNL     1     -10.417  15.805  65.762  1.00  0.00    -0.367 A  
ENDBRANCH  12  13
ENDBRANCH   2  12
TORSDOF 2
ENDMDL
MODEL       39
REMARK 921   NORMALIZED FREE ENERGY PREDICTED BY IDOCK:   -4.12 KCAL/MOL
REMARK 922        TOTAL FREE ENERGY PREDICTED BY IDOCK:   -4.91 KCAL/MOL
REMARK 923 INTER-LIGAND FREE ENERGY PREDICTED BY IDOCK:   -5.08 KCAL/MOL
REMARK 924 INTRA-LIGAND FREE ENERGY PREDICTED BY IDOCK:    0.18 KCAL/MOL
REMARK 927      BINDING AFFINITY PREDICTED BY RF-SCORE:    0.00 PKD
ROOT
HETATM    1  O   UNL     1      -9.871  13.570  64.007  1.00  0.00    -0.678 OA 
HETATM    2  C   UNL     1     -10.780  12.807  64.865  1.00  0.00    -0.305 C  
HETATM    3  H   UNL     1      -9.965  13.241  63.121  1.00  0.00     0.000 HD 
HETATM    4  O   UNL     1     -12.441  13.588  62.858  1.00  0.00    -0.601 OA 
HETATM    5  P   UNL     1     -10.284  11.051  65.013  1.00  0.00    -0.299 P  
HETATM    6  P   UNL     1     -12.493  13.011  64.345  1.00  0.00    -0.263 P  
HETATM    7  O   UNL     1      -8.713  11.591  65.011  1.00  0.00     0.121 OA 
HETATM    8  O   UNL     1     -10.343  10.932  63.371  1.00  0.00    -0.337 OA 
HETATM    9  O   UNL     1     -13.073  14.267  65.155  1.00  0.00    -0.704 OA 
HETATM   10  O   UNL     1     -13.393  11.842  64.465  1.00  0.00    -0.398 OA 
HETATM   11  O   UNL     1      -9.864   9.566  65.139  1.00  0.00    -0.248 OA 
ENDROOT
BRANCH   2  12
HETATM   12  C   UNL     1     -10.625  13.346  66.315  1.00  0.00    -0.291 C  
BRANCH  12  13
HETATM   13  N   UNL     1     -10.952  12.477  67.436  1.00  0.00    -0.250 NA 
HETATM   14  C   UNL     1      -9.988  11.878  68.220  1.00  0.00    -0.202 A  
HETATM   15  C   UNL     1     -10.671  11.093  69.116  1.00  0.00    -0.221 A  
HETATM   16  N   UNL     1     -12.014  11.204  68.910  1.00  0.00    -0.478 NA 
HETATM   17  C   UNL     1     -12.152  12.015  67.891  1.00  0.00     0.068 A  
ENDBRANCH  12  13
ENDBRANCH   2  12
TORSDOF 2
ENDMDL
MODEL       40
REMARK 921   NORMALIZED FREE ENERGY PREDICTED BY IDOCK:   -4.11 KCAL/MOL
REMARK 922        TOTAL FREE ENERGY PREDICTED BY IDOCK:   -4.90 KCAL/MOL
REMARK 923 INTER-LIGAND FREE ENERGY PREDICTED BY IDOCK:   -4.66 KCAL/MOL
REMARK 924 INTRA-LIGAND FREE ENERGY PREDICTED BY IDOCK:   -0.24 KCAL/MOL
REMARK 927      BINDING AFFINITY PREDICTED BY RF-SCORE:    0.00 PKD
ROOT
HETATM    1  O   UNL     1      -9.757  12.330  68.847  1.00  0.00    -0.414 OA 
HETATM    2  C   UNL     1     -10.792  11.466  68.276  1.00  0.00    -0.209 C  
HETATM    3  H   UNL     1      -9.228  11.801  69.431  1.00  0.00     0.000 HD 
HETATM    4  O   UNL     1      -8.539  10.020  67.796  1.00  0.00    -0.118 OA 
HETATM    5  P   UNL     1     -11.994  10.898  69.535  1.00  0.00    -0.248 P  
HETATM    6  P   UNL     1     -10.065  10.110  67.339  1.00  0.00    -0.233 P  
HETATM    7  O   UNL     1     -11.851  12.407  70.217  1.00  0.00    -0.322 OA 
HETATM    8  O   UNL     1     -10.739  10.283  70.406  1.00  0.00    -0.292 OA 
HETATM    9  O   UNL     1      -9.916  10.623  65.828  1.00  0.00    -0.232 OA 
HETATM   10  O   UNL     1     -10.746   8.796  67.387  1.00  0.00    -0.267 OA 
HETATM   11  O   UNL     1     -13.011  10.419  70.600  1.00  0.00    -0.368 OA 
ENDROOT
BRANCH   2  12
HETATM   12  C   UNL     1     -11.659  12.333  67.319  1.00  0.00    -0.357 C  
BRANCH  12  13
HETATM   13  N   UNL     1     -11.237  13.692  67.012  1.00  0.00    -0.304 NA 
HETATM   14  C   UNL     1     -10.406  13.992  65.953  1.00  0.00    -0.318 A  
HETATM   15  C   UNL     1     -10.181  15.345  66.027  1.00  0.00    -0.324 A  
HETATM   16  N   UNL     1     -10.855  15.876  67.086  1.00  0.00    -0.302 NA 
HETATM   17  C   UNL     1     -11.456  14.868  67.667  1.00  0.00    -0.352 A  
ENDBRANCH  12  13
ENDBRANCH   2  12
TORSDOF 2
ENDMDL
MODEL       41
REMARK 921   NORMALIZED FREE ENERGY PREDICTED BY IDOCK:   -4.10 KCAL/MOL
REMARK 922        TOTAL FREE ENERGY PREDICTED BY IDOCK:   -4.89 KCAL/MOL
REMARK 923 INTER-LIGAND FREE ENERGY PREDICTED BY IDOCK:   -4.62 KCAL/MOL
REMARK 924 INTRA-LIGAND FREE ENERGY PREDICTED BY IDOCK:   -0.27 KCAL/MOL
REMARK 927      BINDING AFFINITY PREDICTED BY RF-SCORE:    0.00 PKD
ROOT
HETATM    1  O   UNL     1     -12.118  10.344  68.224  1.00  0.00    -0.747 OA 
HETATM    2  C   UNL     1     -10.749  10.723  68.579  1.00  0.00    -0.210 C  
HETATM    3  H   UNL     1     -12.209  10.440  67.283  1.00  0.00     0.000 HD 
HETATM    4  O   UNL     1     -10.323   8.937  66.573  1.00  0.00    -0.276 OA 
HETATM    5  P   UNL     1     -10.427  12.503  68.304  1.00  0.00    -0.237 P  
HETATM    6  P   UNL     1      -9.545   9.658  67.765  1.00  0.00    -0.145 P  
HETATM    7  O   UNL     1     -11.982  12.770  68.827  1.00  0.00    -0.305 OA 
HETATM    8  O   UNL     1     -10.889  12.309  66.735  1.00  0.00    -0.237 OA 
HETATM    9  O   UNL     1      -9.271   8.430  68.757  1.00  0.00    -0.143 OA 
HETATM   10  O   UNL     1      -8.274  10.271  67.319  1.00  0.00    -0.120 OA 
HETATM   11  O   UNL     1     -10.156  14.010  68.073  1.00  0.00    -0.227 OA 
ENDROOT
BRANCH   2  12
HETATM   12  C   UNL     1     -10.600  10.566  70.120  1.00  0.00    -0.105 C  
BRANCH  12  13
HETATM   13  N   UNL     1     -11.637   9.871  70.868  1.00  0.00    -0.343 NA 
HETATM   14  C   UNL     1     -12.726  10.521  71.410  1.00  0.00    -0.442 A  
HETATM   15  C   UNL     1     -13.434   9.559  72.089  1.00  0.00    -0.456 A  
HETATM   16  N   UNL     1     -12.820   8.349  71.966  1.00  0.00    -0.341 NA 
HETATM   17  C   UNL     1     -11.742   8.567  71.254  1.00  0.00    -0.284 A  
ENDBRANCH  12  13
ENDBRANCH   2  12
TORSDOF 2
ENDMDL
MODEL       42
REMARK 921   NORMALIZED FREE ENERGY PREDICTED BY IDOCK:   -4.09 KCAL/MOL
REMARK 922        TOTAL FREE ENERGY PREDICTED BY IDOCK:   -4.88 KCAL/MOL
REMARK 923 INTER-LIGAND FREE ENERGY PREDICTED BY IDOCK:   -4.86 KCAL/MOL
REMARK 924 INTRA-LIGAND FREE ENERGY PREDICTED BY IDOCK:   -0.02 KCAL/MOL
REMARK 927      BINDING AFFINITY PREDICTED BY RF-SCORE:    0.00 PKD
ROOT
HETATM    1  O   UNL     1     -12.127  12.200  67.569  1.00  0.00    -0.534 OA 
HETATM    2  C   UNL     1     -10.785  12.746  67.360  1.00  0.00    -0.230 C  
HETATM    3  H   UNL     1     -12.326  11.631  66.834  1.00  0.00     0.000 HD 
HETATM    4  O   UNL     1     -10.355  10.083  67.020  1.00  0.00    -0.223 OA 
HETATM    5  P   UNL     1     -10.713  13.877  65.923  1.00  0.00    -0.300 P  
HETATM    6  P   UNL     1      -9.551  11.436  67.285  1.00  0.00    -0.176 P  
HETATM    7  O   UNL     1     -12.226  14.395  66.372  1.00  0.00    -0.417 OA 
HETATM    8  O   UNL     1     -11.306  12.663  64.981  1.00  0.00    -0.294 OA 
HETATM    9  O   UNL     1      -9.029  11.209  68.784  1.00  0.00    -0.169 OA 
HETATM   10  O   UNL     1      -8.417  11.611  66.351  1.00  0.00    -0.176 OA 
HETATM   11  O   UNL     1     -10.652  14.834  64.707  1.00  0.00    -0.413 OA 
ENDROOT
BRANCH   2  12
HETATM   12  C   UNL     1     -10.461  13.676  68.564  1.00  0.00    -0.244 C  
BRANCH  12  13
HETATM   13  N   UNL     1     -11.509  13.989  69.525  1.00  0.00    -0.269 NA 
HETATM   14  C   UNL     1     -11.994  15.267  69.707  1.00  0.00    -0.347 A  
HETATM   15  C   UNL     1     -12.909  15.176  70.728  1.00  0.00    -0.416 A  
HETATM   16  N   UNL     1     -13.003  13.888  71.161  1.00  0.00    -0.331 NA 
HETATM   17  C   UNL     1     -12.144  13.207  70.444  1.00  0.00    -0.317 A  
ENDBRANCH  12  13
ENDBRANCH   2  12
TORSDOF 2
ENDMDL
MODEL       43
REMARK 921   NORMALIZED FREE ENERGY PREDICTED BY IDOCK:   -4.08 KCAL/MOL
REMARK 922        TOTAL FREE ENERGY PREDICTED BY IDOCK:   -4.87 KCAL/MOL
REMARK 923 INTER-LIGAND FREE ENERGY PREDICTED BY IDOCK:   -4.55 KCAL/MOL
REMARK 924 INTRA-LIGAND FREE ENERGY PREDICTED BY IDOCK:   -0.32 KCAL/MOL
REMARK 927      BINDING AFFINITY PREDICTED BY RF-SCORE:    0.00 PKD
ROOT
HETATM    1  O   UNL     1     -11.509   9.812  67.467  1.00  0.00    -0.418 OA 
HETATM    2  C   UNL     1     -10.337  10.689  67.478  1.00  0.00    -0.214 C  
HETATM    3  H   UNL     1     -11.578   9.432  66.599  1.00  0.00     0.000 HD 
HETATM    4  O   UNL     1      -9.294   8.390  66.469  1.00  0.00    -0.172 OA 
HETATM    5  P   UNL     1     -10.553  12.149  66.395  1.00  0.00    -0.261 P  
HETATM    6  P   UNL     1      -8.830   9.769  67.122  1.00  0.00    -0.131 P  
HETATM    7  O   UNL     1     -12.140  12.164  66.888  1.00  0.00    -0.600 OA 
HETATM    8  O   UNL     1     -10.856  11.129  65.138  1.00  0.00    -0.248 OA 
HETATM    9  O   UNL     1      -8.249   9.275  68.532  1.00  0.00    -0.111 OA 
HETATM   10  O   UNL     1      -7.782  10.446  66.325  1.00  0.00    -0.117 OA 
HETATM   11  O   UNL     1     -10.737  13.385  65.480  1.00  0.00    -0.283 OA 
ENDROOT
BRANCH   2  12
HETATM   12  C   UNL     1     -10.225  11.311  68.899  1.00  0.00    -0.180 C  
BRANCH  12  13
HETATM   13  N   UNL     1     -11.078  10.806  69.966  1.00  0.00    -0.277 NA 
HETATM   14  C   UNL     1     -12.222  11.459  70.375  1.00  0.00    -0.362 A  
HETATM   15  C   UNL     1     -12.711  10.728  71.430  1.00  0.00    -0.439 A  
HETATM   16  N   UNL     1     -11.910   9.650  71.666  1.00  0.00    -0.396 NA 
HETATM   17  C   UNL     1     -10.935   9.733  70.795  1.00  0.00    -0.336 A  
ENDBRANCH  12  13
ENDBRANCH   2  12
TORSDOF 2
ENDMDL
MODEL       44
REMARK 921   NORMALIZED FREE ENERGY PREDICTED BY IDOCK:   -4.08 KCAL/MOL
REMARK 922        TOTAL FREE ENERGY PREDICTED BY IDOCK:   -4.86 KCAL/MOL
REMARK 923 INTER-LIGAND FREE ENERGY PREDICTED BY IDOCK:   -4.68 KCAL/MOL
REMARK 924 INTRA-LIGAND FREE ENERGY PREDICTED BY IDOCK:   -0.18 KCAL/MOL
REMARK 927      BINDING AFFINITY PREDICTED BY RF-SCORE:    0.00 PKD
ROOT
HETATM    1  O   UNL     1     -10.436  16.468  67.791  1.00  0.00    -0.289 OA 
HETATM    2  C   UNL     1     -10.205  15.054  67.489  1.00  0.00    -0.234 C  
HETATM    3  H   UNL     1     -10.051  16.979  67.089  1.00  0.00     0.000 HD 
HETATM    4  O   UNL     1     -11.283  15.946  65.157  1.00  0.00    -0.308 OA 
HETATM    5  P   UNL     1      -8.431  14.609  67.567  1.00  0.00    -0.214 P  
HETATM    6  P   UNL     1     -10.978  14.584  65.931  1.00  0.00    -0.341 P  
HETATM    7  O   UNL     1      -8.321  15.654  68.854  1.00  0.00    -0.176 OA 
HETATM    8  O   UNL     1      -8.122  15.789  66.461  1.00  0.00    -0.265 OA 
HETATM    9  O   UNL     1     -12.458  14.080  66.286  1.00  0.00    -0.465 OA 
HETATM   10  O   UNL     1     -10.273  13.599  65.082  1.00  0.00    -0.338 OA 
HETATM   11  O   UNL     1      -6.931  14.232  67.634  1.00  0.00    -0.166 OA 
ENDROOT
BRANCH   2  12
HETATM   12  C   UNL     1     -10.835  14.216  68.638  1.00  0.00    -0.255 C  
BRANCH  12  13
HETATM   13  N   UNL     1     -11.571  14.896  69.694  1.00  0.00    -0.285 NA 
HETATM   14  C   UNL     1     -10.954  15.422  70.810  1.00  0.00    -0.311 A  
HETATM   15  C   UNL     1     -11.966  15.914  71.598  1.00  0.00    -0.480 A  
HETATM   16  N   UNL     1     -13.171  15.715  70.994  1.00  0.00    -0.553 NA 
HETATM   17  C   UNL     1     -12.909  15.088  69.874  1.00  0.00    -0.001 A  
ENDBRANCH  12  13
ENDBRANCH   2  12
TORSDOF 2
ENDMDL
MODEL       45
REMARK 921   NORMALIZED FREE ENERGY PREDICTED BY IDOCK:   -4.06 KCAL/MOL
REMARK 922        TOTAL FREE ENERGY PREDICTED BY IDOCK:   -4.84 KCAL/MOL
REMARK 923 INTER-LIGAND FREE ENERGY PREDICTED BY IDOCK:   -4.59 KCAL/MOL
REMARK 924 INTRA-LIGAND FREE ENERGY PREDICTED BY IDOCK:   -0.25 KCAL/MOL
REMARK 927      BINDING AFFINITY PREDICTED BY RF-SCORE:    0.00 PKD
ROOT
HETATM    1  O   UNL     1     -11.401  15.734  67.202  1.00  0.00    -0.190 OA 
HETATM    2  C   UNL     1     -10.169  15.168  66.649  1.00  0.00    -0.266 C  
HETATM    3  H   UNL     1     -11.940  15.013  67.505  1.00  0.00     0.000 HD 
HETATM    4  O   UNL     1     -10.292  13.953  69.079  1.00  0.00    -0.200 OA 
HETATM    5  P   UNL     1     -10.474  14.201  65.125  1.00  0.00    -0.406 P  
HETATM    6  P   UNL     1      -9.259  14.241  67.898  1.00  0.00    -0.210 P  
HETATM    7  O   UNL     1     -11.616  15.344  64.739  1.00  0.00    -0.363 OA 
HETATM    8  O   UNL     1     -11.546  13.277  65.967  1.00  0.00    -0.324 OA 
HETATM    9  O   UNL     1      -8.254  15.276  68.597  1.00  0.00    -0.141 OA 
HETATM   10  O   UNL     1      -8.543  13.021  67.464  1.00  0.00    -0.169 OA 
HETATM   11  O   UNL     1     -10.731  13.384  63.836  1.00  0.00    -0.254 OA 
ENDROOT
BRANCH   2  12
HETATM   12  C   UNL     1      -9.286  16.349  66.154  1.00  0.00    -0.325 C  
BRANCH  12  13
HETATM   13  N   UNL     1      -9.594  17.701  66.595  1.00  0.00    -0.284 NA 
HETATM   14  C   UNL     1     -10.414  18.548  65.879  1.00  0.00    -0.347 A  
HETATM   15  C   UNL     1     -10.409  19.739  66.565  1.00  0.00    -0.506 A  
HETATM   16  N   UNL     1      -9.625  19.638  67.675  1.00  0.00    -0.330 NA 
HETATM   17  C   UNL     1      -9.135  18.424  67.657  1.00  0.00    -0.273 A  
ENDBRANCH  12  13
ENDBRANCH   2  12
TORSDOF 2
ENDMDL
MODEL       46
REMARK 921   NORMALIZED FREE ENERGY PREDICTED BY IDOCK:   -4.03 KCAL/MOL
REMARK 922        TOTAL FREE ENERGY PREDICTED BY IDOCK:   -4.81 KCAL/MOL
REMARK 923 INTER-LIGAND FREE ENERGY PREDICTED BY IDOCK:   -4.51 KCAL/MOL
REMARK 924 INTRA-LIGAND FREE ENERGY PREDICTED BY IDOCK:   -0.31 KCAL/MOL
REMARK 927      BINDING AFFINITY PREDICTED BY RF-SCORE:    0.00 PKD
ROOT
HETATM    1  O   UNL     1     -10.833   7.369  74.025  1.00  0.00    -0.558 OA 
HETATM    2  C   UNL     1     -10.047   6.887  72.887  1.00  0.00    -0.189 C  
HETATM    3  H   UNL     1     -10.319   7.228  74.811  1.00  0.00     0.000 HD 
HETATM    4  O   UNL     1      -8.261   8.507  74.143  1.00  0.00    -0.334 OA 
HETATM    5  P   UNL     1      -9.819   5.072  72.921  1.00  0.00    -0.161 P  
HETATM    6  P   UNL     1      -8.494   7.787  72.739  1.00  0.00    -0.181 P  
HETATM    7  O   UNL     1     -11.372   4.980  73.506  1.00  0.00    -0.319 OA 
HETATM    8  O   UNL     1      -9.161   5.217  74.424  1.00  0.00    -0.113 OA 
HETATM    9  O   UNL     1      -8.777   9.040  71.781  1.00  0.00    -0.350 OA 
HETATM   10  O   UNL     1      -7.302   7.035  72.287  1.00  0.00    -0.083 OA 
HETATM   11  O   UNL     1      -9.627   3.536  72.949  1.00  0.00    -0.115 OA 
ENDROOT
BRANCH   2  12
HETATM   12  C   UNL     1     -10.889   7.119  71.599  1.00  0.00    -0.224 C  
BRANCH  12  13
HETATM   13  N   UNL     1     -12.096   7.928  71.674  1.00  0.00    -0.288 NA 
HETATM   14  C   UNL     1     -13.362   7.384  71.613  1.00  0.00    -0.364 A  
HETATM   15  C   UNL     1     -14.228   8.450  71.645  1.00  0.00    -0.440 A  
HETATM   16  N   UNL     1     -13.532   9.618  71.736  1.00  0.00    -0.400 NA 
HETATM   17  C   UNL     1     -12.267   9.280  71.729  1.00  0.00    -0.385 A  
ENDBRANCH  12  13
ENDBRANCH   2  12
TORSDOF 2
ENDMDL
MODEL       47
REMARK 921   NORMALIZED FREE ENERGY PREDICTED BY IDOCK:   -4.00 KCAL/MOL
REMARK 922        TOTAL FREE ENERGY PREDICTED BY IDOCK:   -4.77 KCAL/MOL
REMARK 923 INTER-LIGAND FREE ENERGY PREDICTED BY IDOCK:   -4.49 KCAL/MOL
REMARK 924 INTRA-LIGAND FREE ENERGY PREDICTED BY IDOCK:   -0.28 KCAL/MOL
REMARK 927      BINDING AFFINITY PREDICTED BY RF-SCORE:    0.00 PKD
ROOT
HETATM    1  O   UNL     1     -10.809  11.732  67.348  1.00  0.00    -0.227 OA 
HETATM    2  C   UNL     1     -10.199  13.063  67.333  1.00  0.00    -0.231 C  
HETATM    3  H   UNL     1     -10.598  11.327  68.181  1.00  0.00     0.000 HD 
HETATM    4  O   UNL     1     -11.533  13.097  69.702  1.00  0.00    -0.256 OA 
HETATM    5  P   UNL     1      -8.370  12.987  67.312  1.00  0.00    -0.123 P  
HETATM    6  P   UNL     1     -10.843  14.092  68.663  1.00  0.00    -0.268 P  
HETATM    7  O   UNL     1      -8.529  11.664  66.319  1.00  0.00    -0.157 OA 
HETATM    8  O   UNL     1      -8.426  12.080  68.685  1.00  0.00    -0.121 OA 
HETATM    9  O   UNL     1     -12.115  14.867  68.071  1.00  0.00    -0.252 OA 
HETATM   10  O   UNL     1      -9.909  15.034  69.320  1.00  0.00    -0.217 OA 
HETATM   11  O   UNL     1      -6.823  12.923  67.293  1.00  0.00    -0.150 OA 
ENDROOT
BRANCH   2  12
HETATM   12  C   UNL     1     -10.545  13.726  65.969  1.00  0.00    -0.290 C  
BRANCH  12  13
HETATM   13  N   UNL     1     -11.404  13.018  65.031  1.00  0.00    -0.290 NA 
HETATM   14  C   UNL     1     -10.910  12.333  63.940  1.00  0.00    -0.412 A  
HETATM   15  C   UNL     1     -12.010  11.863  63.266  1.00  0.00    -0.337 A  
HETATM   16  N   UNL     1     -13.151  12.228  63.915  1.00  0.00    -0.761 NA 
HETATM   17  C   UNL     1     -12.763  12.932  64.949  1.00  0.00    -0.403 A  
ENDBRANCH  12  13
ENDBRANCH   2  12
TORSDOF 2
ENDMDL
MODEL       48
REMARK 921   NORMALIZED FREE ENERGY PREDICTED BY IDOCK:   -3.96 KCAL/MOL
REMARK 922        TOTAL FREE ENERGY PREDICTED BY IDOCK:   -4.73 KCAL/MOL
REMARK 923 INTER-LIGAND FREE ENERGY PREDICTED BY IDOCK:   -4.93 KCAL/MOL
REMARK 924 INTRA-LIGAND FREE ENERGY PREDICTED BY IDOCK:    0.19 KCAL/MOL
REMARK 927      BINDING AFFINITY PREDICTED BY RF-SCORE:    0.00 PKD
ROOT
HETATM    1  O   UNL     1     -11.000  12.953  69.277  1.00  0.00    -0.403 OA 
HETATM    2  C   UNL     1     -10.836  13.571  67.960  1.00  0.00    -0.250 C  
HETATM    3  H   UNL     1     -10.148  12.935  69.696  1.00  0.00     0.000 HD 
HETATM    4  O   UNL     1      -9.624  15.391  69.577  1.00  0.00    -0.255 OA 
HETATM    5  P   UNL     1      -9.833  12.539  66.829  1.00  0.00    -0.238 P  
HETATM    6  P   UNL     1     -10.219  15.258  68.102  1.00  0.00    -0.236 P  
HETATM    7  O   UNL     1     -10.580  11.223  67.517  1.00  0.00    -0.198 OA 
HETATM    8  O   UNL     1      -8.622  12.553  67.946  1.00  0.00    -0.160 OA 
HETATM    9  O   UNL     1     -11.504  16.212  68.189  1.00  0.00    -0.326 OA 
HETATM   10  O   UNL     1      -9.275  15.736  67.068  1.00  0.00    -0.203 OA 
HETATM   11  O   UNL     1      -8.986  11.665  65.873  1.00  0.00    -0.192 OA 
ENDROOT
BRANCH   2  12
HETATM   12  C   UNL     1     -12.232  13.601  67.274  1.00  0.00    -0.275 C  
BRANCH  12  13
HETATM   13  N   UNL     1     -12.311  13.705  65.824  1.00  0.00    -0.463 NA 
HETATM   14  C   UNL     1     -12.522  12.611  65.010  1.00  0.00    -0.487 A  
HETATM   15  C   UNL     1     -12.465  13.088  63.723  1.00  0.00    -0.311 A  
HETATM   16  N   UNL     1     -12.239  14.432  63.730  1.00  0.00    -0.638 NA 
HETATM   17  C   UNL     1     -12.129  14.769  64.991  1.00  0.00    -0.291 A  
ENDBRANCH  12  13
ENDBRANCH   2  12
TORSDOF 2
ENDMDL
MODEL       49
REMARK 921   NORMALIZED FREE ENERGY PREDICTED BY IDOCK:   -3.95 KCAL/MOL
REMARK 922        TOTAL FREE ENERGY PREDICTED BY IDOCK:   -4.72 KCAL/MOL
REMARK 923 INTER-LIGAND FREE ENERGY PREDICTED BY IDOCK:   -4.40 KCAL/MOL
REMARK 924 INTRA-LIGAND FREE ENERGY PREDICTED BY IDOCK:   -0.32 KCAL/MOL
REMARK 927      BINDING AFFINITY PREDICTED BY RF-SCORE:    0.00 PKD
ROOT
HETATM    1  O   UNL     1      -9.468  12.284  68.585  1.00  0.00    -0.359 OA 
HETATM    2  C   UNL     1     -10.318  12.401  67.399  1.00  0.00    -0.207 C  
HETATM    3  H   UNL     1      -8.565  12.368  68.302  1.00  0.00     0.000 HD 
HETATM    4  O   UNL     1      -8.738  14.602  67.163  1.00  0.00    -0.198 OA 
HETATM    5  P   UNL     1     -10.104  10.993  66.250  1.00  0.00    -0.250 P  
HETATM    6  P   UNL     1     -10.103  14.000  66.597  1.00  0.00    -0.290 P  
HETATM    7  O   UNL     1      -9.953  10.035  67.599  1.00  0.00    -0.163 OA 
HETATM    8  O   UNL     1      -8.493  11.328  66.192  1.00  0.00    -0.173 OA 
HETATM    9  O   UNL     1     -11.182  14.991  67.247  1.00  0.00    -0.327 OA 
HETATM   10  O   UNL     1     -10.167  14.043  65.119  1.00  0.00    -0.367 OA 
HETATM   11  O   UNL     1      -9.925   9.801  65.278  1.00  0.00    -0.318 OA 
ENDROOT
BRANCH   2  12
HETATM   12  C   UNL     1     -11.797  12.265  67.862  1.00  0.00    -0.293 C  
BRANCH  12  13
HETATM   13  N   UNL     1     -12.101  12.278  69.285  1.00  0.00    -0.221 NA 
HETATM   14  C   UNL     1     -12.355  11.128  70.003  1.00  0.00    -0.279 A  
HETATM   15  C   UNL     1     -12.663  11.543  71.276  1.00  0.00    -0.364 A  
HETATM   16  N   UNL     1     -12.592  12.901  71.357  1.00  0.00    -0.283 NA 
HETATM   17  C   UNL     1     -12.278  13.315  70.154  1.00  0.00    -0.306 A  
ENDBRANCH  12  13
ENDBRANCH   2  12
TORSDOF 2
ENDMDL
MODEL       50
REMARK 921   NORMALIZED FREE ENERGY PREDICTED BY IDOCK:   -3.95 KCAL/MOL
REMARK 922        TOTAL FREE ENERGY PREDICTED BY IDOCK:   -4.72 KCAL/MOL
REMARK 923 INTER-LIGAND FREE ENERGY PREDICTED BY IDOCK:   -4.51 KCAL/MOL
REMARK 924 INTRA-LIGAND FREE ENERGY PREDICTED BY IDOCK:   -0.21 KCAL/MOL
REMARK 927      BINDING AFFINITY PREDICTED BY RF-SCORE:    0.00 PKD
ROOT
HETATM    1  O   UNL     1      -9.570  12.973  69.091  1.00  0.00    -0.303 OA 
HETATM    2  C   UNL     1     -10.767  13.482  68.418  1.00  0.00    -0.259 C  
HETATM    3  H   UNL     1      -8.953  13.690  69.164  1.00  0.00     0.000 HD 
HETATM    4  O   UNL     1     -10.421  15.319  70.392  1.00  0.00    -0.258 OA 
HETATM    5  P   UNL     1     -10.441  13.938  66.675  1.00  0.00    -0.278 P  
HETATM    6  P   UNL     1     -11.529  14.815  69.361  1.00  0.00    -0.338 P  
HETATM    7  O   UNL     1      -9.430  12.621  66.617  1.00  0.00    -0.233 OA 
HETATM    8  O   UNL     1      -9.249  14.948  67.198  1.00  0.00    -0.202 OA 
HETATM    9  O   UNL     1     -12.594  14.131  70.344  1.00  0.00    -0.343 OA 
HETATM   10  O   UNL     1     -12.145  15.928  68.605  1.00  0.00    -0.252 OA 
HETATM   11  O   UNL     1     -10.166  14.322  65.201  1.00  0.00    -0.377 OA 
ENDROOT
BRANCH   2  12
HETATM   12  C   UNL     1     -11.778  12.307  68.297  1.00  0.00    -0.336 C  
BRANCH  12  13
HETATM   13  N   UNL     1     -11.489  11.048  68.968  1.00  0.00    -0.272 NA 
HETATM   14  C   UNL     1     -12.021  10.721  70.198  1.00  0.00    -0.349 A  
HETATM   15  C   UNL     1     -11.473   9.506  70.530  1.00  0.00    -0.276 A  
HETATM   16  N   UNL     1     -10.638   9.081  69.541  1.00  0.00    -0.226 NA 
HETATM   17  C   UNL     1     -10.649  10.027  68.634  1.00  0.00    -0.212 A  
ENDBRANCH  12  13
ENDBRANCH   2  12
TORSDOF 2
ENDMDL
MODEL       51
REMARK 921   NORMALIZED FREE ENERGY PREDICTED BY IDOCK:   -3.94 KCAL/MOL
REMARK 922        TOTAL FREE ENERGY PREDICTED BY IDOCK:   -4.71 KCAL/MOL
REMARK 923 INTER-LIGAND FREE ENERGY PREDICTED BY IDOCK:   -4.51 KCAL/MOL
REMARK 924 INTRA-LIGAND FREE ENERGY PREDICTED BY IDOCK:   -0.20 KCAL/MOL
REMARK 927      BINDING AFFINITY PREDICTED BY RF-SCORE:    0.00 PKD
ROOT
HETATM    1  O   UNL     1     -10.766  17.107  67.000  1.00  0.00    -0.266 OA 
HETATM    2  C   UNL     1     -10.192  15.785  67.255  1.00  0.00    -0.268 C  
HETATM    3  H   UNL     1     -11.708  17.005  66.929  1.00  0.00     0.000 HD 
HETATM    4  O   UNL     1     -12.132  15.919  69.156  1.00  0.00    -0.339 OA 
HETATM    5  P   UNL     1     -10.386  14.657  65.827  1.00  0.00    -0.379 P  
HETATM    6  P   UNL     1     -10.821  15.086  68.792  1.00  0.00    -0.276 P  
HETATM    7  O   UNL     1     -10.112  15.982  64.862  1.00  0.00    -0.419 OA 
HETATM    8  O   UNL     1     -12.011  14.918  65.885  1.00  0.00    -0.215 OA 
HETATM    9  O   UNL     1      -9.817  15.547  69.952  1.00  0.00    -0.286 OA 
HETATM   10  O   UNL     1     -11.051  13.625  68.840  1.00  0.00    -0.242 OA 
HETATM   11  O   UNL     1     -10.548  13.704  64.618  1.00  0.00    -0.398 OA 
ENDROOT
BRANCH   2  12
HETATM   12  C   UNL     1      -8.650  15.954  67.372  1.00  0.00    -0.172 C  
BRANCH  12  13
HETATM   13  N   UNL     1      -8.075  17.290  67.323  1.00  0.00    -0.188 NA 
HETATM   14  C   UNL     1      -8.145  18.170  68.382  1.00  0.00    -0.303 A  
HETATM   15  C   UNL     1      -7.561  19.332  67.940  1.00  0.00    -0.276 A  
HETATM   16  N   UNL     1      -7.129  19.183  66.657  1.00  0.00    -0.205 NA 
HETATM   17  C   UNL     1      -7.467  17.967  66.306  1.00  0.00    -0.277 A  
ENDBRANCH  12  13
ENDBRANCH   2  12
TORSDOF 2
ENDMDL
MODEL       52
REMARK 921   NORMALIZED FREE ENERGY PREDICTED BY IDOCK:   -3.94 KCAL/MOL
REMARK 922        TOTAL FREE ENERGY PREDICTED BY IDOCK:   -4.70 KCAL/MOL
REMARK 923 INTER-LIGAND FREE ENERGY PREDICTED BY IDOCK:   -4.43 KCAL/MOL
REMARK 924 INTRA-LIGAND FREE ENERGY PREDICTED BY IDOCK:   -0.28 KCAL/MOL
REMARK 927      BINDING AFFINITY PREDICTED BY RF-SCORE:    0.00 PKD
ROOT
HETATM    1  O   UNL     1     -10.210   9.718  65.957  1.00  0.00    -0.259 OA 
HETATM    2  C   UNL     1      -9.280  10.743  66.434  1.00  0.00    -0.170 C  
HETATM    3  H   UNL     1      -9.966   8.895  66.364  1.00  0.00     0.000 HD 
HETATM    4  O   UNL     1     -10.103   9.616  68.768  1.00  0.00    -0.167 OA 
HETATM    5  P   UNL     1      -7.573  10.465  65.834  1.00  0.00    -0.137 P  
HETATM    6  P   UNL     1      -9.374  10.927  68.223  1.00  0.00    -0.181 P  
HETATM    7  O   UNL     1      -8.256   9.952  64.409  1.00  0.00    -0.145 OA 
HETATM    8  O   UNL     1      -7.618   8.962  66.506  1.00  0.00    -0.090 OA 
HETATM    9  O   UNL     1     -10.479  12.051  68.513  1.00  0.00    -0.218 OA 
HETATM   10  O   UNL     1      -8.119  11.218  68.952  1.00  0.00    -0.140 OA 
HETATM   11  O   UNL     1      -6.130  10.231  65.326  1.00  0.00    -0.107 OA 
ENDROOT
BRANCH   2  12
HETATM   12  C   UNL     1      -9.679  12.090  65.767  1.00  0.00    -0.235 C  
BRANCH  12  13
HETATM   13  N   UNL     1     -10.940  12.181  65.045  1.00  0.00    -0.300 NA 
HETATM   14  C   UNL     1     -11.047  11.912  63.697  1.00  0.00    -0.440 A  
HETATM   15  C   UNL     1     -12.356  12.169  63.369  1.00  0.00    -0.538 A  
HETATM   16  N   UNL     1     -13.047  12.573  64.472  1.00  0.00    -0.839 NA 
HETATM   17  C   UNL     1     -12.176  12.593  65.450  1.00  0.00    -0.459 A  
ENDBRANCH  12  13
ENDBRANCH   2  12
TORSDOF 2
ENDMDL
MODEL       53
REMARK 921   NORMALIZED FREE ENERGY PREDICTED BY IDOCK:   -3.93 KCAL/MOL
REMARK 922        TOTAL FREE ENERGY PREDICTED BY IDOCK:   -4.70 KCAL/MOL
REMARK 923 INTER-LIGAND FREE ENERGY PREDICTED BY IDOCK:   -4.40 KCAL/MOL
REMARK 924 INTRA-LIGAND FREE ENERGY PREDICTED BY IDOCK:   -0.29 KCAL/MOL
REMARK 927      BINDING AFFINITY PREDICTED BY RF-SCORE:    0.00 PKD
ROOT
HETATM    1  O   UNL     1      -9.539  13.085  65.907  1.00  0.00    -0.409 OA 
HETATM    2  C   UNL     1     -10.133  13.446  67.196  1.00  0.00    -0.240 C  
HETATM    3  H   UNL     1     -10.223  13.133  65.250  1.00  0.00     0.000 HD 
HETATM    4  O   UNL     1     -10.927  15.517  65.623  1.00  0.00    -0.333 OA 
HETATM    5  P   UNL     1     -11.355  12.209  67.768  1.00  0.00    -0.344 P  
HETATM    6  P   UNL     1     -10.793  15.122  67.163  1.00  0.00    -0.321 P  
HETATM    7  O   UNL     1     -10.347  11.054  67.127  1.00  0.00    -0.202 OA 
HETATM    8  O   UNL     1     -12.173  12.414  66.354  1.00  0.00    -0.604 OA 
HETATM    9  O   UNL     1      -9.610  16.092  67.641  1.00  0.00    -0.221 OA 
HETATM   10  O   UNL     1     -12.035  15.388  67.924  1.00  0.00    -0.192 OA 
HETATM   11  O   UNL     1     -12.387  11.163  68.253  1.00  0.00    -0.532 OA 
ENDROOT
BRANCH   2  12
HETATM   12  C   UNL     1      -9.012  13.367  68.272  1.00  0.00    -0.176 C  
BRANCH  12  13
HETATM   13  N   UNL     1      -7.627  13.224  67.847  1.00  0.00    -0.135 NA 
HETATM   14  C   UNL     1      -7.014  11.996  67.710  1.00  0.00    -0.103 A  
HETATM   15  C   UNL     1      -5.711  12.267  67.366  1.00  0.00    -0.139 A  
HETATM   16  N   UNL     1      -5.518  13.613  67.279  1.00  0.00    -0.281 NA 
HETATM   17  C   UNL     1      -6.667  14.159  67.592  1.00  0.00    -0.171 A  
ENDBRANCH  12  13
ENDBRANCH   2  12
TORSDOF 2
ENDMDL
MODEL       54
REMARK 921   NORMALIZED FREE ENERGY PREDICTED BY IDOCK:   -3.92 KCAL/MOL
REMARK 922        TOTAL FREE ENERGY PREDICTED BY IDOCK:   -4.69 KCAL/MOL
REMARK 923 INTER-LIGAND FREE ENERGY PREDICTED BY IDOCK:   -4.45 KCAL/MOL
REMARK 924 INTRA-LIGAND FREE ENERGY PREDICTED BY IDOCK:   -0.23 KCAL/MOL
REMARK 927      BINDING AFFINITY PREDICTED BY RF-SCORE:    0.00 PKD
ROOT
HETATM    1  O   UNL     1      -9.015  13.879  69.069  1.00  0.00    -0.379 OA 
HETATM    2  C   UNL     1      -9.471  14.864  68.086  1.00  0.00    -0.202 C  
HETATM    3  H   UNL     1      -8.625  14.353  69.793  1.00  0.00     0.000 HD 
HETATM    4  O   UNL     1     -10.584  15.816  70.377  1.00  0.00    -0.313 OA 
HETATM    5  P   UNL     1      -8.079  15.759  67.303  1.00  0.00    -0.230 P  
HETATM    6  P   UNL     1     -10.706  15.969  68.794  1.00  0.00    -0.327 P  
HETATM    7  O   UNL     1      -7.249  14.320  67.350  1.00  0.00    -0.185 OA 
HETATM    8  O   UNL     1      -7.570  16.209  68.803  1.00  0.00    -0.167 OA 
HETATM    9  O   UNL     1     -12.135  15.298  68.518  1.00  0.00    -0.250 OA 
HETATM   10  O   UNL     1     -10.692  17.384  68.361  1.00  0.00    -0.358 OA 
HETATM   11  O   UNL     1      -6.902  16.515  66.640  1.00  0.00    -0.211 OA 
ENDROOT
BRANCH   2  12
HETATM   12  C   UNL     1     -10.110  14.087  66.900  1.00  0.00    -0.259 C  
BRANCH  12  13
HETATM   13  N   UNL     1     -10.505  12.699  67.088  1.00  0.00    -0.234 NA 
HETATM   14  C   UNL     1      -9.804  11.645  66.539  1.00  0.00    -0.204 A  
HETATM   15  C   UNL     1     -10.510  10.515  66.874  1.00  0.00    -0.246 A  
HETATM   16  N   UNL     1     -11.604  10.846  67.615  1.00  0.00    -0.548 NA 
HETATM   17  C   UNL     1     -11.590  12.152  67.708  1.00  0.00    -0.342 A  
ENDBRANCH  12  13
ENDBRANCH   2  12
TORSDOF 2
ENDMDL
MODEL       55
REMARK 921   NORMALIZED FREE ENERGY PREDICTED BY IDOCK:   -3.90 KCAL/MOL
REMARK 922        TOTAL FREE ENERGY PREDICTED BY IDOCK:   -4.67 KCAL/MOL
REMARK 923 INTER-LIGAND FREE ENERGY PREDICTED BY IDOCK:   -4.36 KCAL/MOL
REMARK 924 INTRA-LIGAND FREE ENERGY PREDICTED BY IDOCK:   -0.31 KCAL/MOL
REMARK 927      BINDING AFFINITY PREDICTED BY RF-SCORE:    0.00 PKD
ROOT
HETATM    1  O   UNL     1     -11.766   7.083  69.392  1.00  0.00    -0.545 OA 
HETATM    2  C   UNL     1     -10.700   7.275  70.377  1.00  0.00    -0.236 C  
HETATM    3  H   UNL     1     -12.136   6.220  69.530  1.00  0.00     0.000 HD 
HETATM    4  O   UNL     1     -12.767   6.470  71.950  1.00  0.00    -0.325 OA 
HETATM    5  P   UNL     1      -9.280   6.157  70.089  1.00  0.00    -0.156 P  
HETATM    6  P   UNL     1     -11.340   7.176  72.058  1.00  0.00    -0.279 P  
HETATM    7  O   UNL     1      -9.547   6.388  68.465  1.00  0.00    -0.124 OA 
HETATM    8  O   UNL     1     -10.313   4.878  70.173  1.00  0.00    -0.265 OA 
HETATM    9  O   UNL     1     -11.753   8.666  72.482  1.00  0.00    -0.361 OA 
HETATM   10  O   UNL     1     -10.479   6.552  73.088  1.00  0.00    -0.215 OA 
HETATM   11  O   UNL     1      -8.077   5.213  69.844  1.00  0.00    -0.080 OA 
ENDROOT
BRANCH   2  12
HETATM   12  C   UNL     1     -10.095   8.690  70.151  1.00  0.00    -0.185 C  
BRANCH  12  13
HETATM   13  N   UNL     1     -10.778   9.622  69.265  1.00  0.00    -0.225 NA 
HETATM   14  C   UNL     1     -10.438   9.771  67.937  1.00  0.00    -0.239 A  
HETATM   15  C   UNL     1     -11.244  10.774  67.456  1.00  0.00    -0.274 A  
HETATM   16  N   UNL     1     -12.067  11.229  68.443  1.00  0.00    -0.609 NA 
HETATM   17  C   UNL     1     -11.753  10.542  69.514  1.00  0.00    -0.241 A  
ENDBRANCH  12  13
ENDBRANCH   2  12
TORSDOF 2
ENDMDL
MODEL       56
REMARK 921   NORMALIZED FREE ENERGY PREDICTED BY IDOCK:   -3.89 KCAL/MOL
REMARK 922        TOTAL FREE ENERGY PREDICTED BY IDOCK:   -4.65 KCAL/MOL
REMARK 923 INTER-LIGAND FREE ENERGY PREDICTED BY IDOCK:   -4.47 KCAL/MOL
REMARK 924 INTRA-LIGAND FREE ENERGY PREDICTED BY IDOCK:   -0.18 KCAL/MOL
REMARK 927      BINDING AFFINITY PREDICTED BY RF-SCORE:    0.00 PKD
ROOT
HETATM    1  O   UNL     1     -12.189   7.095  70.636  1.00  0.00    -0.525 OA 
HETATM    2  C   UNL     1     -10.793   7.084  71.075  1.00  0.00    -0.238 C  
HETATM    3  H   UNL     1     -12.446   6.197  70.466  1.00  0.00     0.000 HD 
HETATM    4  O   UNL     1     -11.901   5.223  72.718  1.00  0.00    -0.251 OA 
HETATM    5  P   UNL     1      -9.651   6.566  69.741  1.00  0.00    -0.151 P  
HETATM    6  P   UNL     1     -10.590   6.123  72.585  1.00  0.00    -0.245 P  
HETATM    7  O   UNL     1     -10.635   7.405  68.699  1.00  0.00    -0.198 OA 
HETATM    8  O   UNL     1     -10.517   5.174  69.587  1.00  0.00    -0.280 OA 
HETATM    9  O   UNL     1     -10.778   7.143  73.808  1.00  0.00    -0.361 OA 
HETATM   10  O   UNL     1      -9.347   5.335  72.739  1.00  0.00    -0.139 OA 
HETATM   11  O   UNL     1      -8.684   6.128  68.614  1.00  0.00    -0.113 OA 
ENDROOT
BRANCH   2  12
HETATM   12  C   UNL     1     -10.373   8.556  71.353  1.00  0.00    -0.239 C  
BRANCH  12  13
HETATM   13  N   UNL     1     -11.367   9.613  71.242  1.00  0.00    -0.372 NA 
HETATM   14  C   UNL     1     -11.273  10.629  70.314  1.00  0.00    -0.285 A  
HETATM   15  C   UNL     1     -12.341  11.457  70.558  1.00  0.00    -0.349 A  
HETATM   16  N   UNL     1     -13.085  10.973  71.592  1.00  0.00    -0.457 NA 
HETATM   17  C   UNL     1     -12.471   9.888  71.995  1.00  0.00    -0.268 A  
ENDBRANCH  12  13
ENDBRANCH   2  12
TORSDOF 2
ENDMDL
MODEL       57
REMARK 921   NORMALIZED FREE ENERGY PREDICTED BY IDOCK:   -3.89 KCAL/MOL
REMARK 922        TOTAL FREE ENERGY PREDICTED BY IDOCK:   -4.65 KCAL/MOL
REMARK 923 INTER-LIGAND FREE ENERGY PREDICTED BY IDOCK:   -4.35 KCAL/MOL
REMARK 924 INTRA-LIGAND FREE ENERGY PREDICTED BY IDOCK:   -0.30 KCAL/MOL
REMARK 927      BINDING AFFINITY PREDICTED BY RF-SCORE:    0.00 PKD
ROOT
HETATM    1  O   UNL     1     -11.407   9.657  67.960  1.00  0.00    -0.525 OA 
HETATM    2  C   UNL     1     -10.451  10.766  67.969  1.00  0.00    -0.194 C  
HETATM    3  H   UNL     1     -11.878   9.689  67.136  1.00  0.00     0.000 HD 
HETATM    4  O   UNL     1      -9.909   9.591  65.577  1.00  0.00    -0.306 OA 
HETATM    5  P   UNL     1     -11.280  12.397  68.021  1.00  0.00    -0.316 P  
HETATM    6  P   UNL     1      -9.271  10.621  66.615  1.00  0.00    -0.171 P  
HETATM    7  O   UNL     1     -12.398  11.692  69.028  1.00  0.00    -0.311 OA 
HETATM    8  O   UNL     1     -12.106  11.982  66.659  1.00  0.00    -0.615 OA 
HETATM    9  O   UNL     1      -8.027   9.781  67.176  1.00  0.00    -0.102 OA 
HETATM   10  O   UNL     1      -8.816  11.869  65.963  1.00  0.00    -0.135 OA 
HETATM   11  O   UNL     1     -11.981  13.776  68.067  1.00  0.00    -0.361 OA 
ENDROOT
BRANCH   2  12
HETATM   12  C   UNL     1      -9.679  10.713  69.318  1.00  0.00    -0.160 C  
BRANCH  12  13
HETATM   13  N   UNL     1      -9.870   9.573  70.203  1.00  0.00    -0.228 NA 
HETATM   14  C   UNL     1     -10.782   9.579  71.238  1.00  0.00    -0.316 A  
HETATM   15  C   UNL     1     -10.626   8.374  71.879  1.00  0.00    -0.300 A  
HETATM   16  N   UNL     1      -9.661   7.635  71.263  1.00  0.00    -0.161 NA 
HETATM   17  C   UNL     1      -9.212   8.381  70.284  1.00  0.00    -0.152 A  
ENDBRANCH  12  13
ENDBRANCH   2  12
TORSDOF 2
ENDMDL
MODEL       58
REMARK 921   NORMALIZED FREE ENERGY PREDICTED BY IDOCK:   -3.86 KCAL/MOL
REMARK 922        TOTAL FREE ENERGY PREDICTED BY IDOCK:   -4.62 KCAL/MOL
REMARK 923 INTER-LIGAND FREE ENERGY PREDICTED BY IDOCK:   -4.30 KCAL/MOL
REMARK 924 INTRA-LIGAND FREE ENERGY PREDICTED BY IDOCK:   -0.32 KCAL/MOL
REMARK 927      BINDING AFFINITY PREDICTED BY RF-SCORE:    0.00 PKD
ROOT
HETATM    1  O   UNL     1      -9.393  11.660  69.144  1.00  0.00    -0.404 OA 
HETATM    2  C   UNL     1     -10.331  10.851  68.363  1.00  0.00    -0.178 C  
HETATM    3  H   UNL     1      -8.522  11.309  69.004  1.00  0.00     0.000 HD 
HETATM    4  O   UNL     1      -8.454  11.476  66.497  1.00  0.00    -0.170 OA 
HETATM    5  P   UNL     1     -10.461   9.138  68.993  1.00  0.00    -0.170 P  
HETATM    6  P   UNL     1      -9.948  10.925  66.604  1.00  0.00    -0.222 P  
HETATM    7  O   UNL     1     -10.327   9.787  70.517  1.00  0.00    -0.278 OA 
HETATM    8  O   UNL     1      -8.831   8.984  68.813  1.00  0.00    -0.135 OA 
HETATM    9  O   UNL     1     -10.785  12.151  66.002  1.00  0.00    -0.256 OA 
HETATM   10  O   UNL     1     -10.155   9.698  65.803  1.00  0.00    -0.290 OA 
HETATM   11  O   UNL     1     -10.572   7.689  69.527  1.00  0.00    -0.229 OA 
ENDROOT
BRANCH   2  12
HETATM   12  C   UNL     1     -11.758  11.427  68.593  1.00  0.00    -0.329 C  
BRANCH  12  13
HETATM   13  N   UNL     1     -11.910  12.687  69.306  1.00  0.00    -0.311 NA 
HETATM   14  C   UNL     1     -12.279  12.750  70.633  1.00  0.00    -0.288 A  
HETATM   15  C   UNL     1     -12.384  14.088  70.927  1.00  0.00    -0.372 A  
HETATM   16  N   UNL     1     -12.080  14.836  69.829  1.00  0.00    -0.316 NA 
HETATM   17  C   UNL     1     -11.824  13.977  68.873  1.00  0.00    -0.355 A  
ENDBRANCH  12  13
ENDBRANCH   2  12
TORSDOF 2
ENDMDL
MODEL       59
REMARK 921   NORMALIZED FREE ENERGY PREDICTED BY IDOCK:   -3.86 KCAL/MOL
REMARK 922        TOTAL FREE ENERGY PREDICTED BY IDOCK:   -4.62 KCAL/MOL
REMARK 923 INTER-LIGAND FREE ENERGY PREDICTED BY IDOCK:   -4.77 KCAL/MOL
REMARK 924 INTRA-LIGAND FREE ENERGY PREDICTED BY IDOCK:    0.15 KCAL/MOL
REMARK 927      BINDING AFFINITY PREDICTED BY RF-SCORE:    0.00 PKD
ROOT
HETATM    1  O   UNL     1      -8.320  11.807  67.917  1.00  0.00    -0.134 OA 
HETATM    2  C   UNL     1      -9.355  11.305  67.012  1.00  0.00    -0.172 C  
HETATM    3  H   UNL     1      -8.199  11.162  68.604  1.00  0.00     0.000 HD 
HETATM    4  O   UNL     1      -7.670   9.175  67.159  1.00  0.00    -0.097 OA 
HETATM    5  P   UNL     1     -10.999  11.229  67.812  1.00  0.00    -0.295 P  
HETATM    6  P   UNL     1      -8.865   9.740  66.265  1.00  0.00    -0.156 P  
HETATM    7  O   UNL     1     -10.584  12.638  68.589  1.00  0.00    -0.235 OA 
HETATM    8  O   UNL     1     -10.346  10.278  68.988  1.00  0.00    -0.187 OA 
HETATM    9  O   UNL     1      -8.102  10.100  64.902  1.00  0.00    -0.145 OA 
HETATM   10  O   UNL     1      -9.920   8.729  66.030  1.00  0.00    -0.256 OA 
HETATM   11  O   UNL     1     -12.391  11.166  68.489  1.00  0.00    -0.561 OA 
ENDROOT
BRANCH   2  12
HETATM   12  C   UNL     1      -9.552  12.361  65.887  1.00  0.00    -0.187 C  
BRANCH  12  13
HETATM   13  N   UNL     1     -10.805  12.385  65.146  1.00  0.00    -0.288 NA 
HETATM   14  C   UNL     1     -11.012  11.634  64.009  1.00  0.00    -0.387 A  
HETATM   15  C   UNL     1     -12.266  11.971  63.562  1.00  0.00    -0.547 A  
HETATM   16  N   UNL     1     -12.830  12.890  64.395  1.00  0.00    -0.725 NA 
HETATM   17  C   UNL     1     -11.931  13.136  65.316  1.00  0.00    -0.398 A  
ENDBRANCH  12  13
ENDBRANCH   2  12
TORSDOF 2
ENDMDL
MODEL       60
REMARK 921   NORMALIZED FREE ENERGY PREDICTED BY IDOCK:   -3.84 KCAL/MOL
REMARK 922        TOTAL FREE ENERGY PREDICTED BY IDOCK:   -4.60 KCAL/MOL
REMARK 923 INTER-LIGAND FREE ENERGY PREDICTED BY IDOCK:   -4.36 KCAL/MOL
REMARK 924 INTRA-LIGAND FREE ENERGY PREDICTED BY IDOCK:   -0.24 KCAL/MOL
REMARK 927      BINDING AFFINITY PREDICTED BY RF-SCORE:    0.00 PKD
ROOT
HETATM    1  O   UNL     1     -11.603  15.091  66.711  1.00  0.00    -0.312 OA 
HETATM    2  C   UNL     1     -10.493  14.833  67.630  1.00  0.00    -0.254 C  
HETATM    3  H   UNL     1     -12.032  15.890  66.993  1.00  0.00     0.000 HD 
HETATM    4  O   UNL     1     -10.040  17.422  66.932  1.00  0.00    -0.292 OA 
HETATM    5  P   UNL     1     -11.071  14.427  69.319  1.00  0.00    -0.245 P  
HETATM    6  P   UNL     1      -9.297  16.180  67.602  1.00  0.00    -0.215 P  
HETATM    7  O   UNL     1     -12.320  13.606  68.594  1.00  0.00    -0.258 OA 
HETATM    8  O   UNL     1     -11.896  15.852  69.342  1.00  0.00    -0.362 OA 
HETATM    9  O   UNL     1      -8.215  15.811  66.479  1.00  0.00    -0.273 OA 
HETATM   10  O   UNL     1      -8.635  16.539  68.876  1.00  0.00    -0.238 OA 
HETATM   11  O   UNL     1     -11.559  14.083  70.747  1.00  0.00    -0.183 OA 
ENDROOT
BRANCH   2  12
HETATM   12  C   UNL     1      -9.791  13.524  67.168  1.00  0.00    -0.245 C  
BRANCH  12  13
HETATM   13  N   UNL     1     -10.220  12.884  65.933  1.00  0.00    -0.286 NA 
HETATM   14  C   UNL     1     -10.845  11.655  65.911  1.00  0.00    -0.287 A  
HETATM   15  C   UNL     1     -11.032  11.356  64.583  1.00  0.00    -0.255 A  
HETATM   16  N   UNL     1     -10.553  12.364  63.803  1.00  0.00    -0.433 NA 
HETATM   17  C   UNL     1     -10.056  13.250  64.630  1.00  0.00    -0.225 A  
ENDBRANCH  12  13
ENDBRANCH   2  12
TORSDOF 2
ENDMDL
MODEL       61
REMARK 921   NORMALIZED FREE ENERGY PREDICTED BY IDOCK:   -3.84 KCAL/MOL
REMARK 922        TOTAL FREE ENERGY PREDICTED BY IDOCK:   -4.60 KCAL/MOL
REMARK 923 INTER-LIGAND FREE ENERGY PREDICTED BY IDOCK:   -4.74 KCAL/MOL
REMARK 924 INTRA-LIGAND FREE ENERGY PREDICTED BY IDOCK:    0.14 KCAL/MOL
REMARK 927      BINDING AFFINITY PREDICTED BY RF-SCORE:    0.00 PKD
ROOT
HETATM    1  O   UNL     1      -8.851  13.738  66.227  1.00  0.00    -0.458 OA 
HETATM    2  C   UNL     1     -10.040  13.004  66.666  1.00  0.00    -0.251 C  
HETATM    3  H   UNL     1      -8.864  13.767  65.278  1.00  0.00     0.000 HD 
HETATM    4  O   UNL     1     -11.118  14.836  64.969  1.00  0.00    -0.359 OA 
HETATM    5  P   UNL     1      -9.980  11.238  66.189  1.00  0.00    -0.249 P  
HETATM    6  P   UNL     1     -11.550  13.826  66.127  1.00  0.00    -0.389 P  
HETATM    7  O   UNL     1      -8.351  11.302  66.512  1.00  0.00    -0.162 OA 
HETATM    8  O   UNL     1      -9.783  11.703  64.622  1.00  0.00    -0.239 OA 
HETATM    9  O   UNL     1     -11.965  14.839  67.297  1.00  0.00    -0.362 OA 
HETATM   10  O   UNL     1     -12.694  12.974  65.733  1.00  0.00    -0.476 OA 
HETATM   11  O   UNL     1      -9.929   9.744  65.787  1.00  0.00    -0.284 OA 
ENDROOT
BRANCH   2  12
HETATM   12  C   UNL     1     -10.019  12.957  68.221  1.00  0.00    -0.234 C  
BRANCH  12  13
HETATM   13  N   UNL     1     -10.696  11.867  68.908  1.00  0.00    -0.219 NA 
HETATM   14  C   UNL     1     -12.030  11.919  69.253  1.00  0.00    -0.281 A  
HETATM   15  C   UNL     1     -12.284  10.755  69.937  1.00  0.00    -0.313 A  
HETATM   16  N   UNL     1     -11.155   9.995  70.008  1.00  0.00    -0.275 NA 
HETATM   17  C   UNL     1     -10.220  10.690  69.408  1.00  0.00    -0.192 A  
ENDBRANCH  12  13
ENDBRANCH   2  12
TORSDOF 2
ENDMDL
MODEL       62
REMARK 921   NORMALIZED FREE ENERGY PREDICTED BY IDOCK:   -3.81 KCAL/MOL
REMARK 922        TOTAL FREE ENERGY PREDICTED BY IDOCK:   -4.56 KCAL/MOL
REMARK 923 INTER-LIGAND FREE ENERGY PREDICTED BY IDOCK:   -4.32 KCAL/MOL
REMARK 924 INTRA-LIGAND FREE ENERGY PREDICTED BY IDOCK:   -0.24 KCAL/MOL
REMARK 927      BINDING AFFINITY PREDICTED BY RF-SCORE:    0.00 PKD
ROOT
HETATM    1  O   UNL     1      -9.752  12.622  68.938  1.00  0.00    -0.408 OA 
HETATM    2  C   UNL     1     -10.246  13.264  67.719  1.00  0.00    -0.228 C  
HETATM    3  H   UNL     1     -10.506  12.372  69.458  1.00  0.00     0.000 HD 
HETATM    4  O   UNL     1     -11.683  10.956  67.747  1.00  0.00    -0.569 OA 
HETATM    5  P   UNL     1     -11.071  14.862  68.061  1.00  0.00    -0.319 P  
HETATM    6  P   UNL     1     -11.270  12.137  66.757  1.00  0.00    -0.348 P  
HETATM    7  O   UNL     1      -9.914  15.103  69.229  1.00  0.00    -0.228 OA 
HETATM    8  O   UNL     1     -12.085  14.077  69.094  1.00  0.00    -0.346 OA 
HETATM    9  O   UNL     1     -10.290  11.375  65.743  1.00  0.00    -0.239 OA 
HETATM   10  O   UNL     1     -12.434  12.705  66.041  1.00  0.00    -0.555 OA 
HETATM   11  O   UNL     1     -11.768  16.214  68.350  1.00  0.00    -0.320 OA 
ENDROOT
BRANCH   2  12
HETATM   12  C   UNL     1      -9.010  13.674  66.867  1.00  0.00    -0.218 C  
BRANCH  12  13
HETATM   13  N   UNL     1      -7.681  13.274  67.303  1.00  0.00    -0.132 NA 
HETATM   14  C   UNL     1      -7.165  12.018  67.060  1.00  0.00    -0.096 A  
HETATM   15  C   UNL     1      -5.936  11.995  67.673  1.00  0.00    -0.093 A  
HETATM   16  N   UNL     1      -5.685  13.195  68.268  1.00  0.00    -0.079 NA 
HETATM   17  C   UNL     1      -6.748  13.930  68.051  1.00  0.00    -0.144 A  
ENDBRANCH  12  13
ENDBRANCH   2  12
TORSDOF 2
ENDMDL
MODEL       63
REMARK 921   NORMALIZED FREE ENERGY PREDICTED BY IDOCK:   -3.80 KCAL/MOL
REMARK 922        TOTAL FREE ENERGY PREDICTED BY IDOCK:   -4.56 KCAL/MOL
REMARK 923 INTER-LIGAND FREE ENERGY PREDICTED BY IDOCK:   -4.30 KCAL/MOL
REMARK 924 INTRA-LIGAND FREE ENERGY PREDICTED BY IDOCK:   -0.25 KCAL/MOL
REMARK 927      BINDING AFFINITY PREDICTED BY RF-SCORE:    0.00 PKD
ROOT
HETATM    1  O   UNL     1     -11.266   8.897  68.065  1.00  0.00    -0.441 OA 
HETATM    2  C   UNL     1     -10.184   9.824  68.402  1.00  0.00    -0.185 C  
HETATM    3  H   UNL     1     -11.218   8.724  67.133  1.00  0.00     0.000 HD 
HETATM    4  O   UNL     1      -8.848   7.893  67.031  1.00  0.00    -0.125 OA 
HETATM    5  P   UNL     1     -10.428  11.477  67.654  1.00  0.00    -0.207 P  
HETATM    6  P   UNL     1      -8.573   9.113  68.023  1.00  0.00    -0.124 P  
HETATM    7  O   UNL     1     -12.049  11.272  67.957  1.00  0.00    -0.638 OA 
HETATM    8  O   UNL     1     -10.518  10.757  66.176  1.00  0.00    -0.249 OA 
HETATM    9  O   UNL     1      -8.085   8.347  69.343  1.00  0.00    -0.110 OA 
HETATM   10  O   UNL     1      -7.520  10.023  67.519  1.00  0.00    -0.090 OA 
HETATM   11  O   UNL     1     -10.635  12.875  67.022  1.00  0.00    -0.250 OA 
ENDROOT
BRANCH   2  12
HETATM   12  C   UNL     1     -10.263  10.107  69.930  1.00  0.00    -0.237 C  
BRANCH  12  13
HETATM   13  N   UNL     1     -11.199   9.349  70.747  1.00  0.00    -0.278 NA 
HETATM   14  C   UNL     1     -12.293   9.926  71.355  1.00  0.00    -0.404 A  
HETATM   15  C   UNL     1     -12.887   8.924  72.083  1.00  0.00    -0.409 A  
HETATM   16  N   UNL     1     -12.198   7.759  71.927  1.00  0.00    -0.296 NA 
HETATM   17  C   UNL     1     -11.186   8.044  71.146  1.00  0.00    -0.261 A  
ENDBRANCH  12  13
ENDBRANCH   2  12
TORSDOF 2
ENDMDL
MODEL       64
REMARK 921   NORMALIZED FREE ENERGY PREDICTED BY IDOCK:   -3.80 KCAL/MOL
REMARK 922        TOTAL FREE ENERGY PREDICTED BY IDOCK:   -4.55 KCAL/MOL
REMARK 923 INTER-LIGAND FREE ENERGY PREDICTED BY IDOCK:   -4.33 KCAL/MOL
REMARK 924 INTRA-LIGAND FREE ENERGY PREDICTED BY IDOCK:   -0.22 KCAL/MOL
REMARK 927      BINDING AFFINITY PREDICTED BY RF-SCORE:    0.00 PKD
ROOT
HETATM    1  O   UNL     1      -9.429  14.719  69.681  1.00  0.00    -0.422 OA 
HETATM    2  C   UNL     1     -10.781  14.936  69.164  1.00  0.00    -0.252 C  
HETATM    3  H   UNL     1      -9.242  15.415  70.300  1.00  0.00     0.000 HD 
HETATM    4  O   UNL     1     -11.191  15.069  71.849  1.00  0.00    -0.333 OA 
HETATM    5  P   UNL     1     -10.900  16.451  68.143  1.00  0.00    -0.311 P  
HETATM    6  P   UNL     1     -12.002  14.885  70.488  1.00  0.00    -0.367 P  
HETATM    7  O   UNL     1      -9.382  16.077  67.579  1.00  0.00    -0.214 OA 
HETATM    8  O   UNL     1     -10.315  17.314  69.418  1.00  0.00    -0.287 OA 
HETATM    9  O   UNL     1     -12.487  13.362  70.608  1.00  0.00    -0.339 OA 
HETATM   10  O   UNL     1     -13.160  15.802  70.393  1.00  0.00    -0.399 OA 
HETATM   11  O   UNL     1     -11.000  17.731  67.279  1.00  0.00    -0.218 OA 
ENDROOT
BRANCH   2  12
HETATM   12  C   UNL     1     -11.088  13.796  68.151  1.00  0.00    -0.259 C  
BRANCH  12  13
HETATM   13  N   UNL     1     -10.127  12.717  67.981  1.00  0.00    -0.224 NA 
HETATM   14  C   UNL     1     -10.237  11.511  68.641  1.00  0.00    -0.208 A  
HETATM   15  C   UNL     1      -9.125  10.788  68.284  1.00  0.00    -0.157 A  
HETATM   16  N   UNL     1      -8.352  11.508  67.422  1.00  0.00    -0.142 NA 
HETATM   17  C   UNL     1      -8.960  12.660  67.277  1.00  0.00    -0.194 A  
ENDBRANCH  12  13
ENDBRANCH   2  12
TORSDOF 2
ENDMDL
MODEL       65
REMARK 921   NORMALIZED FREE ENERGY PREDICTED BY IDOCK:   -3.79 KCAL/MOL
REMARK 922        TOTAL FREE ENERGY PREDICTED BY IDOCK:   -4.55 KCAL/MOL
REMARK 923 INTER-LIGAND FREE ENERGY PREDICTED BY IDOCK:   -4.38 KCAL/MOL
REMARK 924 INTRA-LIGAND FREE ENERGY PREDICTED BY IDOCK:   -0.17 KCAL/MOL
REMARK 927      BINDING AFFINITY PREDICTED BY RF-SCORE:    0.00 PKD
ROOT
HETATM    1  O   UNL     1     -10.129   9.601  64.330  1.00  0.00    -0.343 OA 
HETATM    2  C   UNL     1      -9.198  10.104  65.342  1.00  0.00    -0.202 C  
HETATM    3  H   UNL     1      -9.977   8.669  64.235  1.00  0.00     0.000 HD 
HETATM    4  O   UNL     1     -10.324   7.991  66.630  1.00  0.00    -0.297 OA 
HETATM    5  P   UNL     1      -7.456  10.016  64.787  1.00  0.00    -0.118 P  
HETATM    6  P   UNL     1      -9.469   9.303  66.933  1.00  0.00    -0.187 P  
HETATM    7  O   UNL     1      -8.014  10.427  63.277  1.00  0.00    -0.154 OA 
HETATM    8  O   UNL     1      -7.657   8.403  64.525  1.00  0.00    -0.094 OA 
HETATM    9  O   UNL     1     -10.533  10.202  67.726  1.00  0.00    -0.198 OA 
HETATM   10  O   UNL     1      -8.284   9.022  67.773  1.00  0.00    -0.109 OA 
HETATM   11  O   UNL     1      -5.983   9.943  64.317  1.00  0.00    -0.102 OA 
ENDROOT
BRANCH   2  12
HETATM   12  C   UNL     1      -9.448  11.631  65.497  1.00  0.00    -0.195 C  
BRANCH  12  13
HETATM   13  N   UNL     1     -10.683  12.206  64.984  1.00  0.00    -0.286 NA 
HETATM   14  C   UNL     1     -10.834  12.589  63.668  1.00  0.00    -0.441 A  
HETATM   15  C   UNL     1     -12.089  13.141  63.582  1.00  0.00    -0.513 A  
HETATM   16  N   UNL     1     -12.707  13.095  64.796  1.00  0.00    -0.700 NA 
HETATM   17  C   UNL     1     -11.840  12.555  65.616  1.00  0.00    -0.438 A  
ENDBRANCH  12  13
ENDBRANCH   2  12
TORSDOF 2
ENDMDL
MODEL       66
REMARK 921   NORMALIZED FREE ENERGY PREDICTED BY IDOCK:   -3.79 KCAL/MOL
REMARK 922        TOTAL FREE ENERGY PREDICTED BY IDOCK:   -4.54 KCAL/MOL
REMARK 923 INTER-LIGAND FREE ENERGY PREDICTED BY IDOCK:   -4.83 KCAL/MOL
REMARK 924 INTRA-LIGAND FREE ENERGY PREDICTED BY IDOCK:    0.28 KCAL/MOL
REMARK 927      BINDING AFFINITY PREDICTED BY RF-SCORE:    0.00 PKD
ROOT
HETATM    1  O   UNL     1      -9.513  13.217  65.410  1.00  0.00    -0.484 OA 
HETATM    2  C   UNL     1     -10.194  14.157  66.303  1.00  0.00    -0.295 C  
HETATM    3  H   UNL     1      -9.482  12.375  65.847  1.00  0.00     0.000 HD 
HETATM    4  O   UNL     1     -11.944  12.076  66.254  1.00  0.00    -0.596 OA 
HETATM    5  P   UNL     1      -9.224  14.502  67.816  1.00  0.00    -0.209 P  
HETATM    6  P   UNL     1     -11.877  13.619  66.656  1.00  0.00    -0.426 P  
HETATM    7  O   UNL     1      -7.872  14.439  66.852  1.00  0.00    -0.047 OA 
HETATM    8  O   UNL     1      -9.194  12.885  68.126  1.00  0.00    -0.204 OA 
HETATM    9  O   UNL     1     -12.816  14.281  65.539  1.00  0.00    -0.539 OA 
HETATM   10  O   UNL     1     -12.410  13.871  68.013  1.00  0.00    -0.239 OA 
HETATM   11  O   UNL     1      -8.403  14.796  69.095  1.00  0.00    -0.160 OA 
ENDROOT
BRANCH   2  12
HETATM   12  C   UNL     1     -10.246  15.537  65.587  1.00  0.00    -0.376 C  
BRANCH  12  13
HETATM   13  N   UNL     1     -10.184  16.754  66.383  1.00  0.00    -0.313 NA 
HETATM   14  C   UNL     1      -9.173  17.682  66.246  1.00  0.00    -0.190 A  
HETATM   15  C   UNL     1      -9.416  18.641  67.199  1.00  0.00    -0.295 A  
HETATM   16  N   UNL     1     -10.543  18.333  67.900  1.00  0.00    -0.398 NA 
HETATM   17  C   UNL     1     -10.967  17.194  67.409  1.00  0.00    -0.057 A  
ENDBRANCH  12  13
ENDBRANCH   2  12
TORSDOF 2
ENDMDL
MODEL       67
REMARK 921   NORMALIZED FREE ENERGY PREDICTED BY IDOCK:   -3.79 KCAL/MOL
REMARK 922        TOTAL FREE ENERGY PREDICTED BY IDOCK:   -4.54 KCAL/MOL
REMARK 923 INTER-LIGAND FREE ENERGY PREDICTED BY IDOCK:   -4.90 KCAL/MOL
REMARK 924 INTRA-LIGAND FREE ENERGY PREDICTED BY IDOCK:    0.36 KCAL/MOL
REMARK 927      BINDING AFFINITY PREDICTED BY RF-SCORE:    0.00 PKD
ROOT
HETATM    1  O   UNL     1     -10.799  15.249  66.874  1.00  0.00    -0.310 OA 
HETATM    2  C   UNL     1     -10.762  13.983  67.607  1.00  0.00    -0.257 C  
HETATM    3  H   UNL     1     -10.179  15.840  67.286  1.00  0.00     0.000 HD 
HETATM    4  O   UNL     1      -8.123  14.404  67.103  1.00  0.00    -0.193 OA 
HETATM    5  P   UNL     1     -11.407  14.149  69.312  1.00  0.00    -0.286 P  
HETATM    6  P   UNL     1      -9.121  13.241  67.547  1.00  0.00    -0.234 P  
HETATM    7  O   UNL     1     -12.524  15.208  68.687  1.00  0.00     0.027 OA 
HETATM    8  O   UNL     1     -10.295  15.334  69.581  1.00  0.00    -0.245 OA 
HETATM    9  O   UNL     1      -9.094  12.288  66.258  1.00  0.00    -0.206 OA 
HETATM   10  O   UNL     1      -8.647  12.520  68.749  1.00  0.00    -0.012 OA 
HETATM   11  O   UNL     1     -11.953  14.289  70.754  1.00  0.00    -0.313 OA 
ENDROOT
BRANCH   2  12
HETATM   12  C   UNL     1     -11.777  13.016  66.933  1.00  0.00    -0.383 C  
BRANCH  12  13
HETATM   13  N   UNL     1     -12.053  13.154  65.510  1.00  0.00    -0.415 NA 
HETATM   14  C   UNL     1     -11.960  12.097  64.629  1.00  0.00    -0.323 A  
HETATM   15  C   UNL     1     -12.222  12.623  63.387  1.00  0.00    -0.517 A  
HETATM   16  N   UNL     1     -12.482  13.957  63.488  1.00  0.00    -0.812 NA 
HETATM   17  C   UNL     1     -12.353  14.251  64.758  1.00  0.00    -0.426 A  
ENDBRANCH  12  13
ENDBRANCH   2  12
TORSDOF 2
ENDMDL
MODEL       68
REMARK 921   NORMALIZED FREE ENERGY PREDICTED BY IDOCK:   -3.79 KCAL/MOL
REMARK 922        TOTAL FREE ENERGY PREDICTED BY IDOCK:   -4.54 KCAL/MOL
REMARK 923 INTER-LIGAND FREE ENERGY PREDICTED BY IDOCK:   -4.24 KCAL/MOL
REMARK 924 INTRA-LIGAND FREE ENERGY PREDICTED BY IDOCK:   -0.30 KCAL/MOL
REMARK 927      BINDING AFFINITY PREDICTED BY RF-SCORE:    0.00 PKD
ROOT
HETATM    1  O   UNL     1      -9.758   8.824  71.986  1.00  0.00    -0.299 OA 
HETATM    2  C   UNL     1     -10.430   7.722  71.294  1.00  0.00    -0.206 C  
HETATM    3  H   UNL     1      -8.903   8.514  72.261  1.00  0.00     0.000 HD 
HETATM    4  O   UNL     1      -8.031   7.793  70.016  1.00  0.00    -0.108 OA 
HETATM    5  P   UNL     1     -10.828   6.336  72.421  1.00  0.00    -0.271 P  
HETATM    6  P   UNL     1      -9.502   7.202  69.840  1.00  0.00    -0.150 P  
HETATM    7  O   UNL     1     -11.160   7.488  73.572  1.00  0.00    -0.312 OA 
HETATM    8  O   UNL     1      -9.234   6.254  72.828  1.00  0.00    -0.139 OA 
HETATM    9  O   UNL     1     -10.050   8.069  68.609  1.00  0.00    -0.188 OA 
HETATM   10  O   UNL     1      -9.494   5.759  69.509  1.00  0.00    -0.131 OA 
HETATM   11  O   UNL     1     -11.165   5.163  73.374  1.00  0.00    -0.313 OA 
ENDROOT
BRANCH   2  12
HETATM   12  C   UNL     1     -11.830   8.231  70.844  1.00  0.00    -0.216 C  
BRANCH  12  13
HETATM   13  N   UNL     1     -12.155   9.642  70.989  1.00  0.00    -0.320 NA 
HETATM   14  C   UNL     1     -13.049  10.107  71.931  1.00  0.00    -0.466 A  
HETATM   15  C   UNL     1     -13.144  11.460  71.718  1.00  0.00    -0.418 A  
HETATM   16  N   UNL     1     -12.331  11.833  70.689  1.00  0.00    -0.356 NA 
HETATM   17  C   UNL     1     -11.772  10.729  70.260  1.00  0.00    -0.352 A  
ENDBRANCH  12  13
ENDBRANCH   2  12
TORSDOF 2
ENDMDL
MODEL       69
REMARK 921   NORMALIZED FREE ENERGY PREDICTED BY IDOCK:   -3.78 KCAL/MOL
REMARK 922        TOTAL FREE ENERGY PREDICTED BY IDOCK:   -4.53 KCAL/MOL
REMARK 923 INTER-LIGAND FREE ENERGY PREDICTED BY IDOCK:   -4.22 KCAL/MOL
REMARK 924 INTRA-LIGAND FREE ENERGY PREDICTED BY IDOCK:   -0.31 KCAL/MOL
REMARK 927      BINDING AFFINITY PREDICTED BY RF-SCORE:    0.00 PKD
ROOT
HETATM    1  O   UNL     1      -9.470  11.933  68.860  1.00  0.00    -0.400 OA 
HETATM    2  C   UNL     1      -9.892  11.170  67.684  1.00  0.00    -0.174 C  
HETATM    3  H   UNL     1      -8.812  12.557  68.578  1.00  0.00     0.000 HD 
HETATM    4  O   UNL     1     -10.150  13.729  66.802  1.00  0.00    -0.255 OA 
HETATM    5  P   UNL     1      -8.554  10.106  67.031  1.00  0.00    -0.128 P  
HETATM    6  P   UNL     1     -10.609  12.247  66.430  1.00  0.00    -0.260 P  
HETATM    7  O   UNL     1      -8.119   9.840  68.612  1.00  0.00    -0.100 OA 
HETATM    8  O   UNL     1      -7.603  11.443  66.895  1.00  0.00    -0.139 OA 
HETATM    9  O   UNL     1     -12.182  12.316  66.727  1.00  0.00    -0.558 OA 
HETATM   10  O   UNL     1     -10.352  11.917  65.011  1.00  0.00    -0.267 OA 
HETATM   11  O   UNL     1      -7.423   9.205  66.478  1.00  0.00    -0.091 OA 
ENDROOT
BRANCH   2  12
HETATM   12  C   UNL     1     -10.970  10.147  68.146  1.00  0.00    -0.259 C  
BRANCH  12  13
HETATM   13  N   UNL     1     -11.487  10.224  69.505  1.00  0.00    -0.233 NA 
HETATM   14  C   UNL     1     -11.145   9.314  70.483  1.00  0.00    -0.265 A  
HETATM   15  C   UNL     1     -11.874   9.669  71.593  1.00  0.00    -0.384 A  
HETATM   16  N   UNL     1     -12.635  10.766  71.324  1.00  0.00    -0.403 NA 
HETATM   17  C   UNL     1     -12.404  11.062  70.069  1.00  0.00    -0.305 A  
ENDBRANCH  12  13
ENDBRANCH   2  12
TORSDOF 2
ENDMDL
MODEL       70
REMARK 921   NORMALIZED FREE ENERGY PREDICTED BY IDOCK:   -3.74 KCAL/MOL
REMARK 922        TOTAL FREE ENERGY PREDICTED BY IDOCK:   -4.49 KCAL/MOL
REMARK 923 INTER-LIGAND FREE ENERGY PREDICTED BY IDOCK:   -4.64 KCAL/MOL
REMARK 924 INTRA-LIGAND FREE ENERGY PREDICTED BY IDOCK:    0.15 KCAL/MOL
REMARK 927      BINDING AFFINITY PREDICTED BY RF-SCORE:    0.00 PKD
ROOT
HETATM    1  O   UNL     1      -7.856  19.723  65.385  1.00  0.00    -0.347 OA 
HETATM    2  C   UNL     1      -7.833  18.993  66.653  1.00  0.00    -0.263 C  
HETATM    3  H   UNL     1      -8.238  20.577  65.549  1.00  0.00     0.000 HD 
HETATM    4  O   UNL     1      -6.664  21.347  67.350  1.00  0.00    -0.563 OA 
HETATM    5  P   UNL     1      -9.515  18.592  67.254  1.00  0.00    -0.314 P  
HETATM    6  P   UNL     1      -6.835  19.852  67.882  1.00  0.00    -0.278 P  
HETATM    7  O   UNL     1      -9.922  18.337  65.664  1.00  0.00    -0.497 OA 
HETATM    8  O   UNL     1      -9.883  20.196  67.188  1.00  0.00    -0.392 OA 
HETATM    9  O   UNL     1      -5.342  19.288  67.739  1.00  0.00    -0.172 OA 
HETATM   10  O   UNL     1      -7.285  19.804  69.291  1.00  0.00    -0.340 OA 
HETATM   11  O   UNL     1     -10.938  18.253  67.762  1.00  0.00    -0.321 OA 
ENDROOT
BRANCH   2  12
HETATM   12  C   UNL     1      -7.207  17.595  66.383  1.00  0.00    -0.284 C  
BRANCH  12  13
HETATM   13  N   UNL     1      -7.454  16.511  67.323  1.00  0.00    -0.148 NA 
HETATM   14  C   UNL     1      -8.180  15.387  66.988  1.00  0.00    -0.236 A  
HETATM   15  C   UNL     1      -8.255  14.636  68.136  1.00  0.00    -0.142 A  
HETATM   16  N   UNL     1      -7.592  15.260  69.150  1.00  0.00    -0.175 NA 
HETATM   17  C   UNL     1      -7.144  16.383  68.645  1.00  0.00    -0.163 A  
ENDBRANCH  12  13
ENDBRANCH   2  12
TORSDOF 2
ENDMDL
MODEL       71
REMARK 921   NORMALIZED FREE ENERGY PREDICTED BY IDOCK:   -3.74 KCAL/MOL
REMARK 922        TOTAL FREE ENERGY PREDICTED BY IDOCK:   -4.48 KCAL/MOL
REMARK 923 INTER-LIGAND FREE ENERGY PREDICTED BY IDOCK:   -4.33 KCAL/MOL
REMARK 924 INTRA-LIGAND FREE ENERGY PREDICTED BY IDOCK:   -0.15 KCAL/MOL
REMARK 927      BINDING AFFINITY PREDICTED BY RF-SCORE:    0.00 PKD
ROOT
HETATM    1  O   UNL     1     -11.284   9.070  68.472  1.00  0.00    -0.445 OA 
HETATM    2  C   UNL     1     -10.217   8.244  69.042  1.00  0.00    -0.217 C  
HETATM    3  H   UNL     1     -11.177   9.070  67.529  1.00  0.00     0.000 HD 
HETATM    4  O   UNL     1     -11.247   6.587  67.148  1.00  0.00    -0.388 OA 
HETATM    5  P   UNL     1      -8.562   8.989  68.805  1.00  0.00    -0.133 P  
HETATM    6  P   UNL     1     -10.316   6.548  68.443  1.00  0.00    -0.237 P  
HETATM    7  O   UNL     1      -9.288  10.460  69.067  1.00  0.00    -0.175 OA 
HETATM    8  O   UNL     1      -8.849   9.029  67.184  1.00  0.00    -0.119 OA 
HETATM    9  O   UNL     1     -11.242   5.748  69.478  1.00  0.00    -0.343 OA 
HETATM   10  O   UNL     1      -9.046   5.828  68.203  1.00  0.00    -0.111 OA 
HETATM   11  O   UNL     1      -7.162   9.618  68.607  1.00  0.00    -0.071 OA 
ENDROOT
BRANCH   2  12
HETATM   12  C   UNL     1     -10.393   8.245  70.587  1.00  0.00    -0.199 C  
BRANCH  12  13
HETATM   13  N   UNL     1     -11.583   8.849  71.168  1.00  0.00    -0.286 NA 
HETATM   14  C   UNL     1     -12.635   8.101  71.654  1.00  0.00    -0.320 A  
HETATM   15  C   UNL     1     -13.586   9.010  72.050  1.00  0.00    -0.445 A  
HETATM   16  N   UNL     1     -13.143  10.280  71.832  1.00  0.00    -0.461 NA 
HETATM   17  C   UNL     1     -11.959  10.155  71.286  1.00  0.00    -0.382 A  
ENDBRANCH  12  13
ENDBRANCH   2  12
TORSDOF 2
ENDMDL
MODEL       72
REMARK 921   NORMALIZED FREE ENERGY PREDICTED BY IDOCK:   -3.73 KCAL/MOL
REMARK 922        TOTAL FREE ENERGY PREDICTED BY IDOCK:   -4.48 KCAL/MOL
REMARK 923 INTER-LIGAND FREE ENERGY PREDICTED BY IDOCK:   -4.58 KCAL/MOL
REMARK 924 INTRA-LIGAND FREE ENERGY PREDICTED BY IDOCK:    0.10 KCAL/MOL
REMARK 927      BINDING AFFINITY PREDICTED BY RF-SCORE:    0.00 PKD
ROOT
HETATM    1  O   UNL     1      -9.412  13.156  66.552  1.00  0.00    -0.252 OA 
HETATM    2  C   UNL     1     -10.454  13.877  67.287  1.00  0.00    -0.271 C  
HETATM    3  H   UNL     1      -9.154  13.695  65.814  1.00  0.00     0.000 HD 
HETATM    4  O   UNL     1      -8.516  15.773  67.076  1.00  0.00    -0.182 OA 
HETATM    5  P   UNL     1     -12.000  14.036  66.322  1.00  0.00    -0.448 P  
HETATM    6  P   UNL     1      -9.844  15.457  67.902  1.00  0.00    -0.220 P  
HETATM    7  O   UNL     1     -11.693  12.506  65.752  1.00  0.00    -0.384 OA 
HETATM    8  O   UNL     1     -11.135  14.759  65.120  1.00  0.00    -0.341 OA 
HETATM    9  O   UNL     1      -9.252  15.184  69.366  1.00  0.00    -0.220 OA 
HETATM   10  O   UNL     1     -10.784  16.600  67.916  1.00  0.00    -0.336 OA 
HETATM   11  O   UNL     1     -13.309  14.170  65.505  1.00  0.00    -0.656 OA 
ENDROOT
BRANCH   2  12
HETATM   12  C   UNL     1     -10.876  12.994  68.497  1.00  0.00    -0.258 C  
BRANCH  12  13
HETATM   13  N   UNL     1     -10.418  11.614  68.565  1.00  0.00    -0.211 NA 
HETATM   14  C   UNL     1     -11.286  10.546  68.655  1.00  0.00    -0.270 A  
HETATM   15  C   UNL     1     -10.492   9.430  68.767  1.00  0.00    -0.212 A  
HETATM   16  N   UNL     1      -9.176   9.784  68.735  1.00  0.00    -0.139 NA 
HETATM   17  C   UNL     1      -9.161  11.090  68.637  1.00  0.00    -0.174 A  
ENDBRANCH  12  13
ENDBRANCH   2  12
TORSDOF 2
ENDMDL
MODEL       73
REMARK 921   NORMALIZED FREE ENERGY PREDICTED BY IDOCK:   -3.71 KCAL/MOL
REMARK 922        TOTAL FREE ENERGY PREDICTED BY IDOCK:   -4.46 KCAL/MOL
REMARK 923 INTER-LIGAND FREE ENERGY PREDICTED BY IDOCK:   -4.53 KCAL/MOL
REMARK 924 INTRA-LIGAND FREE ENERGY PREDICTED BY IDOCK:    0.07 KCAL/MOL
REMARK 927      BINDING AFFINITY PREDICTED BY RF-SCORE:    0.00 PKD
ROOT
HETATM    1  O   UNL     1     -11.391   7.674  69.432  1.00  0.00    -0.445 OA 
HETATM    2  C   UNL     1     -10.634   8.011  70.639  1.00  0.00    -0.219 C  
HETATM    3  H   UNL     1     -11.674   6.771  69.512  1.00  0.00     0.000 HD 
HETATM    4  O   UNL     1     -12.910   6.960  71.692  1.00  0.00    -0.373 OA 
HETATM    5  P   UNL     1      -9.059   7.085  70.752  1.00  0.00    -0.152 P  
HETATM    6  P   UNL     1     -11.653   7.846  72.116  1.00  0.00    -0.373 P  
HETATM    7  O   UNL     1      -8.944   7.263  69.104  1.00  0.00    -0.136 OA 
HETATM    8  O   UNL     1      -9.915   5.683  70.634  1.00  0.00    -0.181 OA 
HETATM    9  O   UNL     1     -12.337   9.274  72.364  1.00  0.00    -0.307 OA 
HETATM   10  O   UNL     1     -11.002   7.349  73.349  1.00  0.00    -0.378 OA 
HETATM   11  O   UNL     1      -7.727   6.302  70.847  1.00  0.00    -0.094 OA 
ENDROOT
BRANCH   2  12
HETATM   12  C   UNL     1     -10.171   9.490  70.508  1.00  0.00    -0.287 C  
BRANCH  12  13
HETATM   13  N   UNL     1     -10.787  10.343  69.503  1.00  0.00    -0.238 NA 
HETATM   14  C   UNL     1     -11.514  11.469  69.827  1.00  0.00    -0.286 A  
HETATM   15  C   UNL     1     -11.987  11.963  68.635  1.00  0.00    -0.233 A  
HETATM   16  N   UNL     1     -11.563  11.183  67.602  1.00  0.00    -0.564 NA 
HETATM   17  C   UNL     1     -10.870  10.214  68.147  1.00  0.00    -0.262 A  
ENDBRANCH  12  13
ENDBRANCH   2  12
TORSDOF 2
ENDMDL
MODEL       74
REMARK 921   NORMALIZED FREE ENERGY PREDICTED BY IDOCK:   -3.70 KCAL/MOL
REMARK 922        TOTAL FREE ENERGY PREDICTED BY IDOCK:   -4.44 KCAL/MOL
REMARK 923 INTER-LIGAND FREE ENERGY PREDICTED BY IDOCK:   -4.13 KCAL/MOL
REMARK 924 INTRA-LIGAND FREE ENERGY PREDICTED BY IDOCK:   -0.32 KCAL/MOL
REMARK 927      BINDING AFFINITY PREDICTED BY RF-SCORE:    0.00 PKD
ROOT
HETATM    1  O   UNL     1     -11.917   8.185  70.275  1.00  0.00    -0.466 OA 
HETATM    2  C   UNL     1     -11.130   9.381  70.580  1.00  0.00    -0.289 C  
HETATM    3  H   UNL     1     -12.470   8.385  69.529  1.00  0.00     0.000 HD 
HETATM    4  O   UNL     1     -10.675   9.087  67.916  1.00  0.00    -0.217 OA 
HETATM    5  P   UNL     1     -12.171  10.760  71.185  1.00  0.00    -0.276 P  
HETATM    6  P   UNL     1     -10.086   9.848  69.188  1.00  0.00    -0.230 P  
HETATM    7  O   UNL     1     -13.071   9.611  71.978  1.00  0.00    -0.397 OA 
HETATM    8  O   UNL     1     -13.065  10.644  69.807  1.00  0.00    -0.081 OA 
HETATM    9  O   UNL     1      -8.685   9.096  69.391  1.00  0.00    -0.131 OA 
HETATM   10  O   UNL     1      -9.880  11.292  68.936  1.00  0.00    -0.198 OA 
HETATM   11  O   UNL     1     -13.051  11.927  71.697  1.00  0.00    -0.436 OA 
ENDROOT
BRANCH   2  12
HETATM   12  C   UNL     1     -10.225   9.053  71.802  1.00  0.00    -0.319 C  
BRANCH  12  13
HETATM   13  N   UNL     1     -10.118   7.675  72.258  1.00  0.00    -0.196 NA 
HETATM   14  C   UNL     1     -10.870   7.176  73.301  1.00  0.00    -0.338 A  
HETATM   15  C   UNL     1     -10.446   5.882  73.480  1.00  0.00    -0.258 A  
HETATM   16  N   UNL     1      -9.473   5.577  72.576  1.00  0.00    -0.145 NA 
HETATM   17  C   UNL     1      -9.282   6.668  71.877  1.00  0.00    -0.147 A  
ENDBRANCH  12  13
ENDBRANCH   2  12
TORSDOF 2
ENDMDL
MODEL       75
REMARK 921   NORMALIZED FREE ENERGY PREDICTED BY IDOCK:   -3.68 KCAL/MOL
REMARK 922        TOTAL FREE ENERGY PREDICTED BY IDOCK:   -4.41 KCAL/MOL
REMARK 923 INTER-LIGAND FREE ENERGY PREDICTED BY IDOCK:   -4.15 KCAL/MOL
REMARK 924 INTRA-LIGAND FREE ENERGY PREDICTED BY IDOCK:   -0.26 KCAL/MOL
REMARK 927      BINDING AFFINITY PREDICTED BY RF-SCORE:    0.00 PKD
ROOT
HETATM    1  O   UNL     1     -11.579   7.231  69.443  1.00  0.00    -0.473 OA 
HETATM    2  C   UNL     1     -10.205   7.546  69.838  1.00  0.00    -0.210 C  
HETATM    3  H   UNL     1     -11.545   6.506  68.831  1.00  0.00     0.000 HD 
HETATM    4  O   UNL     1     -10.301   4.862  70.269  1.00  0.00    -0.254 OA 
HETATM    5  P   UNL     1      -9.220   8.216  68.448  1.00  0.00    -0.133 P  
HETATM    6  P   UNL     1      -9.418   6.138  70.641  1.00  0.00    -0.170 P  
HETATM    7  O   UNL     1     -10.603   9.003  67.970  1.00  0.00    -0.229 OA 
HETATM    8  O   UNL     1      -9.581   6.861  67.584  1.00  0.00    -0.125 OA 
HETATM    9  O   UNL     1      -9.710   6.281  72.211  1.00  0.00    -0.157 OA 
HETATM   10  O   UNL     1      -7.976   5.919  70.389  1.00  0.00    -0.102 OA 
HETATM   11  O   UNL     1      -8.387   8.784  67.273  1.00  0.00    -0.104 OA 
ENDROOT
BRANCH   2  12
HETATM   12  C   UNL     1     -10.261   8.732  70.842  1.00  0.00    -0.226 C  
BRANCH  12  13
HETATM   13  N   UNL     1     -11.553   9.182  71.341  1.00  0.00    -0.313 NA 
HETATM   14  C   UNL     1     -12.085  10.414  71.023  1.00  0.00    -0.385 A  
HETATM   15  C   UNL     1     -13.263  10.503  71.725  1.00  0.00    -0.417 A  
HETATM   16  N   UNL     1     -13.468   9.365  72.446  1.00  0.00    -0.462 NA 
HETATM   17  C   UNL     1     -12.425   8.606  72.217  1.00  0.00    -0.395 A  
ENDBRANCH  12  13
ENDBRANCH   2  12
TORSDOF 2
ENDMDL
MODEL       76
REMARK 921   NORMALIZED FREE ENERGY PREDICTED BY IDOCK:   -3.67 KCAL/MOL
REMARK 922        TOTAL FREE ENERGY PREDICTED BY IDOCK:   -4.41 KCAL/MOL
REMARK 923 INTER-LIGAND FREE ENERGY PREDICTED BY IDOCK:   -4.30 KCAL/MOL
REMARK 924 INTRA-LIGAND FREE ENERGY PREDICTED BY IDOCK:   -0.11 KCAL/MOL
REMARK 927      BINDING AFFINITY PREDICTED BY RF-SCORE:    0.00 PKD
ROOT
HETATM    1  O   UNL     1      -9.901  10.391  70.427  1.00  0.00    -0.321 OA 
HETATM    2  C   UNL     1     -10.822   9.538  69.674  1.00  0.00    -0.235 C  
HETATM    3  H   UNL     1      -9.017  10.113  70.222  1.00  0.00     0.000 HD 
HETATM    4  O   UNL     1      -9.118  10.367  67.723  1.00  0.00    -0.131 OA 
HETATM    5  P   UNL     1     -10.784   7.800  70.246  1.00  0.00    -0.232 P  
HETATM    6  P   UNL     1     -10.557   9.699  67.899  1.00  0.00    -0.216 P  
HETATM    7  O   UNL     1     -10.604   8.406  71.782  1.00  0.00    -0.239 OA 
HETATM    8  O   UNL     1      -9.161   7.779  69.963  1.00  0.00    -0.153 OA 
HETATM    9  O   UNL     1     -11.520  10.876  67.394  1.00  0.00    -0.479 OA 
HETATM   10  O   UNL     1     -10.721   8.487  67.066  1.00  0.00    -0.275 OA 
HETATM   11  O   UNL     1     -10.752   6.330  70.730  1.00  0.00    -0.230 OA 
ENDROOT
BRANCH   2  12
HETATM   12  C   UNL     1     -12.271   9.994  70.010  1.00  0.00     0.028 C  
BRANCH  12  13
HETATM   13  N   UNL     1     -12.480  11.282  70.654  1.00  0.00    -0.352 NA 
HETATM   14  C   UNL     1     -13.192  11.420  71.828  1.00  0.00    -0.367 A  
HETATM   15  C   UNL     1     -13.232  12.770  72.082  1.00  0.00    -0.441 A  
HETATM   16  N   UNL     1     -12.560  13.451  71.112  1.00  0.00    -0.367 NA 
HETATM   17  C   UNL     1     -12.143  12.544  70.263  1.00  0.00    -0.294 A  
ENDBRANCH  12  13
ENDBRANCH   2  12
TORSDOF 2
ENDMDL
MODEL       77
REMARK 921   NORMALIZED FREE ENERGY PREDICTED BY IDOCK:   -3.66 KCAL/MOL
REMARK 922        TOTAL FREE ENERGY PREDICTED BY IDOCK:   -4.40 KCAL/MOL
REMARK 923 INTER-LIGAND FREE ENERGY PREDICTED BY IDOCK:   -4.08 KCAL/MOL
REMARK 924 INTRA-LIGAND FREE ENERGY PREDICTED BY IDOCK:   -0.32 KCAL/MOL
REMARK 927      BINDING AFFINITY PREDICTED BY RF-SCORE:    0.00 PKD
ROOT
HETATM    1  O   UNL     1      -9.127  12.770  68.699  1.00  0.00    -0.377 OA 
HETATM    2  C   UNL     1      -9.808  13.105  67.447  1.00  0.00    -0.226 C  
HETATM    3  H   UNL     1      -9.365  13.427  69.342  1.00  0.00     0.000 HD 
HETATM    4  O   UNL     1     -11.863  13.170  69.227  1.00  0.00    -0.302 OA 
HETATM    5  P   UNL     1      -9.184  14.661  66.712  1.00  0.00    -0.258 P  
HETATM    6  P   UNL     1     -11.597  13.097  67.655  1.00  0.00    -0.367 P  
HETATM    7  O   UNL     1      -7.678  14.197  67.239  1.00  0.00    -0.181 OA 
HETATM    8  O   UNL     1      -9.543  15.432  68.123  1.00  0.00    -0.201 OA 
HETATM    9  O   UNL     1     -12.093  11.610  67.317  1.00  0.00    -0.595 OA 
HETATM   10  O   UNL     1     -12.383  14.101  66.904  1.00  0.00    -0.419 OA 
HETATM   11  O   UNL     1      -8.655  15.976  66.090  1.00  0.00    -0.333 OA 
ENDROOT
BRANCH   2  12
HETATM   12  C   UNL     1      -9.418  12.030  66.393  1.00  0.00    -0.231 C  
BRANCH  12  13
HETATM   13  N   UNL     1      -8.655  10.864  66.816  1.00  0.00    -0.133 NA 
HETATM   14  C   UNL     1      -7.295  10.752  66.613  1.00  0.00    -0.134 A  
HETATM   15  C   UNL     1      -6.952   9.505  67.076  1.00  0.00    -0.085 A  
HETATM   16  N   UNL     1      -8.052   8.864  67.561  1.00  0.00    -0.108 NA 
HETATM   17  C   UNL     1      -9.055   9.685  67.373  1.00  0.00    -0.130 A  
ENDBRANCH  12  13
ENDBRANCH   2  12
TORSDOF 2
ENDMDL
MODEL       78
REMARK 921   NORMALIZED FREE ENERGY PREDICTED BY IDOCK:   -3.65 KCAL/MOL
REMARK 922        TOTAL FREE ENERGY PREDICTED BY IDOCK:   -4.38 KCAL/MOL
REMARK 923 INTER-LIGAND FREE ENERGY PREDICTED BY IDOCK:   -4.83 KCAL/MOL
REMARK 924 INTRA-LIGAND FREE ENERGY PREDICTED BY IDOCK:    0.44 KCAL/MOL
REMARK 927      BINDING AFFINITY PREDICTED BY RF-SCORE:    0.00 PKD
ROOT
HETATM    1  O   UNL     1     -12.321  13.787  68.160  1.00  0.00    -0.436 OA 
HETATM    2  C   UNL     1     -11.117  13.736  67.329  1.00  0.00    -0.304 C  
HETATM    3  H   UNL     1     -12.830  14.541  67.886  1.00  0.00     0.000 HD 
HETATM    4  O   UNL     1     -13.073  13.957  65.453  1.00  0.00    -0.752 OA 
HETATM    5  P   UNL     1      -9.992  15.143  67.650  1.00  0.00    -0.230 P  
HETATM    6  P   UNL     1     -11.535  13.554  65.586  1.00  0.00    -0.337 P  
HETATM    7  O   UNL     1     -10.424  15.004  69.249  1.00  0.00    -0.235 OA 
HETATM    8  O   UNL     1     -11.233  16.169  67.307  1.00  0.00    -0.160 OA 
HETATM    9  O   UNL     1     -11.589  11.981  65.287  1.00  0.00    -0.336 OA 
HETATM   10  O   UNL     1     -10.682  14.251  64.598  1.00  0.00    -0.412 OA 
HETATM   11  O   UNL     1      -9.040  16.333  67.922  1.00  0.00    -0.194 OA 
ENDROOT
BRANCH   2  12
HETATM   12  C   UNL     1     -10.284  12.501  67.780  1.00  0.00    -0.217 C  
BRANCH  12  13
HETATM   13  N   UNL     1     -10.803  11.638  68.830  1.00  0.00    -0.215 NA 
HETATM   14  C   UNL     1     -10.628  10.270  68.823  1.00  0.00    -0.209 A  
HETATM   15  C   UNL     1     -11.307   9.801  69.921  1.00  0.00    -0.192 A  
HETATM   16  N   UNL     1     -11.876  10.837  70.599  1.00  0.00    -0.342 NA 
HETATM   17  C   UNL     1     -11.579  11.915  69.917  1.00  0.00    -0.256 A  
ENDBRANCH  12  13
ENDBRANCH   2  12
TORSDOF 2
ENDMDL
MODEL       79
REMARK 921   NORMALIZED FREE ENERGY PREDICTED BY IDOCK:   -3.64 KCAL/MOL
REMARK 922        TOTAL FREE ENERGY PREDICTED BY IDOCK:   -4.37 KCAL/MOL
REMARK 923 INTER-LIGAND FREE ENERGY PREDICTED BY IDOCK:   -4.06 KCAL/MOL
REMARK 924 INTRA-LIGAND FREE ENERGY PREDICTED BY IDOCK:   -0.32 KCAL/MOL
REMARK 927      BINDING AFFINITY PREDICTED BY RF-SCORE:    0.00 PKD
ROOT
HETATM    1  O   UNL     1     -10.181   7.534  72.861  1.00  0.00    -0.223 OA 
HETATM    2  C   UNL     1      -9.889   7.292  71.447  1.00  0.00    -0.186 C  
HETATM    3  H   UNL     1      -9.418   7.272  73.363  1.00  0.00     0.000 HD 
HETATM    4  O   UNL     1      -7.709   8.721  72.224  1.00  0.00    -0.332 OA 
HETATM    5  P   UNL     1      -9.728   5.509  71.067  1.00  0.00    -0.191 P  
HETATM    6  P   UNL     1      -8.470   8.258  70.900  1.00  0.00    -0.156 P  
HETATM    7  O   UNL     1     -10.956   5.261  72.158  1.00  0.00    -0.223 OA 
HETATM    8  O   UNL     1      -8.556   5.404  72.220  1.00  0.00    -0.124 OA 
HETATM    9  O   UNL     1      -9.043   9.652  70.356  1.00  0.00    -0.246 OA 
HETATM   10  O   UNL     1      -7.557   7.640  69.912  1.00  0.00    -0.088 OA 
HETATM   11  O   UNL     1      -9.592   4.001  70.745  1.00  0.00    -0.165 OA 
ENDROOT
BRANCH   2  12
HETATM   12  C   UNL     1     -11.138   7.722  70.626  1.00  0.00    -0.256 C  
BRANCH  12  13
HETATM   13  N   UNL     1     -12.206   8.457  71.287  1.00  0.00    -0.296 NA 
HETATM   14  C   UNL     1     -13.340   7.843  71.776  1.00  0.00    -0.328 A  
HETATM   15  C   UNL     1     -14.133   8.855  72.259  1.00  0.00    -0.442 A  
HETATM   16  N   UNL     1     -13.515  10.058  72.092  1.00  0.00    -0.397 NA 
HETATM   17  C   UNL     1     -12.381   9.794  71.491  1.00  0.00    -0.405 A  
ENDBRANCH  12  13
ENDBRANCH   2  12
TORSDOF 2
ENDMDL
MODEL       80
REMARK 921   NORMALIZED FREE ENERGY PREDICTED BY IDOCK:   -3.64 KCAL/MOL
REMARK 922        TOTAL FREE ENERGY PREDICTED BY IDOCK:   -4.37 KCAL/MOL
REMARK 923 INTER-LIGAND FREE ENERGY PREDICTED BY IDOCK:   -4.07 KCAL/MOL
REMARK 924 INTRA-LIGAND FREE ENERGY PREDICTED BY IDOCK:   -0.30 KCAL/MOL
REMARK 927      BINDING AFFINITY PREDICTED BY RF-SCORE:    0.00 PKD
ROOT
HETATM    1  O   UNL     1      -9.049  11.340  69.221  1.00  0.00    -0.393 OA 
HETATM    2  C   UNL     1      -9.940  10.840  68.172  1.00  0.00    -0.160 C  
HETATM    3  H   UNL     1      -8.787  12.220  68.982  1.00  0.00     0.000 HD 
HETATM    4  O   UNL     1     -11.074  13.240  68.760  1.00  0.00    -0.247 OA 
HETATM    5  P   UNL     1      -9.071  10.602  66.579  1.00  0.00    -0.171 P  
HETATM    6  P   UNL     1     -11.413  11.867  68.023  1.00  0.00    -0.326 P  
HETATM    7  O   UNL     1      -7.768  10.088  67.472  1.00  0.00    -0.091 OA 
HETATM    8  O   UNL     1      -8.607  12.181  66.636  1.00  0.00    -0.185 OA 
HETATM    9  O   UNL     1     -12.513  11.240  69.005  1.00  0.00    -0.417 OA 
HETATM   10  O   UNL     1     -11.971  12.077  66.668  1.00  0.00    -0.614 OA 
HETATM   11  O   UNL     1      -8.336  10.400  65.231  1.00  0.00    -0.159 OA 
ENDROOT
BRANCH   2  12
HETATM   12  C   UNL     1     -10.369   9.397  68.565  1.00  0.00    -0.209 C  
BRANCH  12  13
HETATM   13  N   UNL     1     -10.101   8.916  69.912  1.00  0.00    -0.189 NA 
HETATM   14  C   UNL     1      -9.118   7.988  70.189  1.00  0.00    -0.151 A  
HETATM   15  C   UNL     1      -9.212   7.737  71.536  1.00  0.00    -0.137 A  
HETATM   16  N   UNL     1     -10.207   8.488  72.086  1.00  0.00    -0.315 NA 
HETATM   17  C   UNL     1     -10.734   9.163  71.095  1.00  0.00    -0.310 A  
ENDBRANCH  12  13
ENDBRANCH   2  12
TORSDOF 2
ENDMDL
MODEL       81
REMARK 921   NORMALIZED FREE ENERGY PREDICTED BY IDOCK:   -3.62 KCAL/MOL
REMARK 922        TOTAL FREE ENERGY PREDICTED BY IDOCK:   -4.35 KCAL/MOL
REMARK 923 INTER-LIGAND FREE ENERGY PREDICTED BY IDOCK:   -4.27 KCAL/MOL
REMARK 924 INTRA-LIGAND FREE ENERGY PREDICTED BY IDOCK:   -0.08 KCAL/MOL
REMARK 927      BINDING AFFINITY PREDICTED BY RF-SCORE:    0.00 PKD
ROOT
HETATM    1  O   UNL     1      -9.593  14.685  65.612  1.00  0.00    -0.480 OA 
HETATM    2  C   UNL     1      -9.610  14.110  66.958  1.00  0.00    -0.262 C  
HETATM    3  H   UNL     1      -9.293  15.584  65.685  1.00  0.00     0.000 HD 
HETATM    4  O   UNL     1      -7.100  15.151  66.835  1.00  0.00    -0.148 OA 
HETATM    5  P   UNL     1     -10.873  14.890  68.030  1.00  0.00    -0.282 P  
HETATM    6  P   UNL     1      -7.964  14.119  67.692  1.00  0.00    -0.199 P  
HETATM    7  O   UNL     1     -11.840  14.961  66.680  1.00  0.00    -0.291 OA 
HETATM    8  O   UNL     1     -10.179  16.352  67.725  1.00  0.00    -0.259 OA 
HETATM    9  O   UNL     1      -7.278  12.725  67.301  1.00  0.00    -0.145 OA 
HETATM   10  O   UNL     1      -7.861  14.370  69.147  1.00  0.00    -0.113 OA 
HETATM   11  O   UNL     1     -11.941  15.548  68.936  1.00  0.00    -0.351 OA 
ENDROOT
BRANCH   2  12
HETATM   12  C   UNL     1     -10.100  12.639  66.838  1.00  0.00    -0.230 C  
BRANCH  12  13
HETATM   13  N   UNL     1     -10.290  12.058  65.517  1.00  0.00    -0.254 NA 
HETATM   14  C   UNL     1     -11.388  12.340  64.731  1.00  0.00    -0.323 A  
HETATM   15  C   UNL     1     -11.250  11.563  63.606  1.00  0.00    -0.362 A  
HETATM   16  N   UNL     1     -10.102  10.832  63.678  1.00  0.00    -0.335 NA 
HETATM   17  C   UNL     1      -9.562  11.128  64.834  1.00  0.00    -0.239 A  
ENDBRANCH  12  13
ENDBRANCH   2  12
TORSDOF 2
ENDMDL
MODEL       82
REMARK 921   NORMALIZED FREE ENERGY PREDICTED BY IDOCK:   -3.61 KCAL/MOL
REMARK 922        TOTAL FREE ENERGY PREDICTED BY IDOCK:   -4.34 KCAL/MOL
REMARK 923 INTER-LIGAND FREE ENERGY PREDICTED BY IDOCK:   -4.14 KCAL/MOL
REMARK 924 INTRA-LIGAND FREE ENERGY PREDICTED BY IDOCK:   -0.19 KCAL/MOL
REMARK 927      BINDING AFFINITY PREDICTED BY RF-SCORE:    0.00 PKD
ROOT
HETATM    1  O   UNL     1      -8.950  14.768  65.605  1.00  0.00    -0.341 OA 
HETATM    2  C   UNL     1     -10.289  14.737  66.197  1.00  0.00    -0.304 C  
HETATM    3  H   UNL     1      -8.816  15.634  65.239  1.00  0.00     0.000 HD 
HETATM    4  O   UNL     1      -9.245  16.986  67.314  1.00  0.00    -0.217 OA 
HETATM    5  P   UNL     1     -11.608  14.868  64.935  1.00  0.00    -0.318 P  
HETATM    6  P   UNL     1     -10.451  15.959  67.510  1.00  0.00    -0.304 P  
HETATM    7  O   UNL     1     -10.642  13.931  63.961  1.00  0.00    -0.080 OA 
HETATM    8  O   UNL     1     -10.926  16.275  64.417  1.00  0.00    -0.708 OA 
HETATM    9  O   UNL     1     -10.029  15.228  68.873  1.00  0.00    -0.207 OA 
HETATM   10  O   UNL     1     -11.755  16.643  67.658  1.00  0.00     0.266 OA 
HETATM   11  O   UNL     1     -12.724  14.978  63.867  1.00  0.00    -0.775 OA 
ENDROOT
BRANCH   2  12
HETATM   12  C   UNL     1     -10.508  13.319  66.797  1.00  0.00    -0.270 C  
BRANCH  12  13
HETATM   13  N   UNL     1      -9.438  12.336  66.710  1.00  0.00    -0.216 NA 
HETATM   14  C   UNL     1      -8.327  12.372  67.527  1.00  0.00    -0.173 A  
HETATM   15  C   UNL     1      -7.522  11.341  67.106  1.00  0.00    -0.130 A  
HETATM   16  N   UNL     1      -8.112  10.676  66.073  1.00  0.00    -0.156 NA 
HETATM   17  C   UNL     1      -9.239  11.302  65.843  1.00  0.00    -0.212 A  
ENDBRANCH  12  13
ENDBRANCH   2  12
TORSDOF 2
ENDMDL
MODEL       83
REMARK 921   NORMALIZED FREE ENERGY PREDICTED BY IDOCK:   -3.60 KCAL/MOL
REMARK 922        TOTAL FREE ENERGY PREDICTED BY IDOCK:   -4.33 KCAL/MOL
REMARK 923 INTER-LIGAND FREE ENERGY PREDICTED BY IDOCK:   -4.01 KCAL/MOL
REMARK 924 INTRA-LIGAND FREE ENERGY PREDICTED BY IDOCK:   -0.32 KCAL/MOL
REMARK 927      BINDING AFFINITY PREDICTED BY RF-SCORE:    0.00 PKD
ROOT
HETATM    1  O   UNL     1     -10.495  11.945  68.451  1.00  0.00    -0.203 OA 
HETATM    2  C   UNL     1      -9.638  12.249  67.304  1.00  0.00    -0.187 C  
HETATM    3  H   UNL     1     -10.466  11.006  68.592  1.00  0.00     0.000 HD 
HETATM    4  O   UNL     1      -7.979  10.746  68.847  1.00  0.00    -0.126 OA 
HETATM    5  P   UNL     1     -10.304  11.567  65.741  1.00  0.00    -0.267 P  
HETATM    6  P   UNL     1      -7.933  11.757  67.614  1.00  0.00    -0.165 P  
HETATM    7  O   UNL     1     -11.812  11.954  66.322  1.00  0.00    -0.546 OA 
HETATM    8  O   UNL     1     -10.315  10.075  66.437  1.00  0.00    -0.226 OA 
HETATM    9  O   UNL     1      -7.200  13.024  68.267  1.00  0.00    -0.093 OA 
HETATM   10  O   UNL     1      -7.152  11.224  66.475  1.00  0.00    -0.139 OA 
HETATM   11  O   UNL     1     -10.867  10.992  64.419  1.00  0.00    -0.334 OA 
ENDROOT
BRANCH   2  12
HETATM   12  C   UNL     1      -9.686  13.787  67.073  1.00  0.00    -0.251 C  
BRANCH  12  13
HETATM   13  N   UNL     1     -10.294  14.639  68.083  1.00  0.00    -0.227 NA 
HETATM   14  C   UNL     1     -11.598  15.081  67.997  1.00  0.00    -0.338 A  
HETATM   15  C   UNL     1     -11.785  15.905  69.080  1.00  0.00    -0.363 A  
HETATM   16  N   UNL     1     -10.646  15.967  69.825  1.00  0.00    -0.303 NA 
HETATM   17  C   UNL     1      -9.768  15.224  69.198  1.00  0.00    -0.243 A  
ENDBRANCH  12  13
ENDBRANCH   2  12
TORSDOF 2
ENDMDL
MODEL       84
REMARK 921   NORMALIZED FREE ENERGY PREDICTED BY IDOCK:   -3.59 KCAL/MOL
REMARK 922        TOTAL FREE ENERGY PREDICTED BY IDOCK:   -4.31 KCAL/MOL
REMARK 923 INTER-LIGAND FREE ENERGY PREDICTED BY IDOCK:   -4.47 KCAL/MOL
REMARK 924 INTRA-LIGAND FREE ENERGY PREDICTED BY IDOCK:    0.16 KCAL/MOL
REMARK 927      BINDING AFFINITY PREDICTED BY RF-SCORE:    0.00 PKD
ROOT
HETATM    1  O   UNL     1     -12.777  13.920  65.879  1.00  0.00    -0.489 OA 
HETATM    2  C   UNL     1     -11.370  13.578  65.659  1.00  0.00    -0.298 C  
HETATM    3  H   UNL     1     -13.096  14.349  65.094  1.00  0.00     0.000 HD 
HETATM    4  O   UNL     1     -12.542  12.545  63.434  1.00  0.00    -0.690 OA 
HETATM    5  P   UNL     1     -10.307  15.062  65.530  1.00  0.00    -0.414 P  
HETATM    6  P   UNL     1     -11.182  12.456  64.262  1.00  0.00    -0.424 P  
HETATM    7  O   UNL     1     -11.268  15.739  66.704  1.00  0.00    -0.174 OA 
HETATM    8  O   UNL     1     -11.266  15.600  64.303  1.00  0.00    -0.292 OA 
HETATM    9  O   UNL     1     -11.264  10.968  64.853  1.00  0.00    -0.055 OA 
HETATM   10  O   UNL     1      -9.987  12.619  63.404  1.00  0.00    -0.329 OA 
HETATM   11  O   UNL     1      -9.408  16.318  65.421  1.00  0.00    -0.361 OA 
ENDROOT
BRANCH   2  12
HETATM   12  C   UNL     1     -10.848  12.875  66.945  1.00  0.00    -0.257 C  
BRANCH  12  13
HETATM   13  N   UNL     1      -9.420  12.873  67.225  1.00  0.00    -0.209 NA 
HETATM   14  C   UNL     1      -8.849  13.687  68.182  1.00  0.00    -0.189 A  
HETATM   15  C   UNL     1      -7.497  13.456  68.108  1.00  0.00    -0.133 A  
HETATM   16  N   UNL     1      -7.231  12.524  67.150  1.00  0.00    -0.106 NA 
HETATM   17  C   UNL     1      -8.390  12.211  66.625  1.00  0.00    -0.051 A  
ENDBRANCH  12  13
ENDBRANCH   2  12
TORSDOF 2
ENDMDL
MODEL       85
REMARK 921   NORMALIZED FREE ENERGY PREDICTED BY IDOCK:   -3.58 KCAL/MOL
REMARK 922        TOTAL FREE ENERGY PREDICTED BY IDOCK:   -4.30 KCAL/MOL
REMARK 923 INTER-LIGAND FREE ENERGY PREDICTED BY IDOCK:   -3.99 KCAL/MOL
REMARK 924 INTRA-LIGAND FREE ENERGY PREDICTED BY IDOCK:   -0.31 KCAL/MOL
REMARK 927      BINDING AFFINITY PREDICTED BY RF-SCORE:    0.00 PKD
ROOT
HETATM    1  O   UNL     1      -9.712  15.023  68.972  1.00  0.00    -0.218 OA 
HETATM    2  C   UNL     1     -10.076  14.767  67.577  1.00  0.00    -0.224 C  
HETATM    3  H   UNL     1     -10.381  15.584  69.347  1.00  0.00     0.000 HD 
HETATM    4  O   UNL     1     -12.383  14.140  68.873  1.00  0.00    -0.284 OA 
HETATM    5  P   UNL     1      -9.985  16.278  66.548  1.00  0.00    -0.311 P  
HETATM    6  P   UNL     1     -11.669  13.934  67.461  1.00  0.00    -0.402 P  
HETATM    7  O   UNL     1      -8.648  16.695  67.443  1.00  0.00    -0.185 OA 
HETATM    8  O   UNL     1     -11.028  17.010  67.591  1.00  0.00    -0.290 OA 
HETATM    9  O   UNL     1     -11.368  12.360  67.482  1.00  0.00    -0.274 OA 
HETATM   10  O   UNL     1     -12.550  14.289  66.326  1.00  0.00    -0.416 OA 
HETATM   11  O   UNL     1      -9.907  17.555  65.677  1.00  0.00    -0.543 OA 
ENDROOT
BRANCH   2  12
HETATM   12  C   UNL     1      -8.981  13.849  66.964  1.00  0.00    -0.240 C  
BRANCH  12  13
HETATM   13  N   UNL     1      -7.996  13.232  67.840  1.00  0.00    -0.143 NA 
HETATM   14  C   UNL     1      -6.752  13.784  68.067  1.00  0.00    -0.139 A  
HETATM   15  C   UNL     1      -6.093  12.895  68.880  1.00  0.00    -0.083 A  
HETATM   16  N   UNL     1      -6.896  11.831  69.162  1.00  0.00    -0.107 NA 
HETATM   17  C   UNL     1      -8.014  12.046  68.514  1.00  0.00    -0.132 A  
ENDBRANCH  12  13
ENDBRANCH   2  12
TORSDOF 2
ENDMDL
MODEL       86
REMARK 921   NORMALIZED FREE ENERGY PREDICTED BY IDOCK:   -3.57 KCAL/MOL
REMARK 922        TOTAL FREE ENERGY PREDICTED BY IDOCK:   -4.29 KCAL/MOL
REMARK 923 INTER-LIGAND FREE ENERGY PREDICTED BY IDOCK:   -4.06 KCAL/MOL
REMARK 924 INTRA-LIGAND FREE ENERGY PREDICTED BY IDOCK:   -0.24 KCAL/MOL
REMARK 927      BINDING AFFINITY PREDICTED BY RF-SCORE:    0.00 PKD
ROOT
HETATM    1  O   UNL     1      -8.187  12.370  66.264  1.00  0.00    -0.380 OA 
HETATM    2  C   UNL     1      -9.323  11.520  66.626  1.00  0.00    -0.189 C  
HETATM    3  H   UNL     1      -7.414  11.820  66.229  1.00  0.00     0.000 HD 
HETATM    4  O   UNL     1      -8.235  10.134  64.555  1.00  0.00    -0.153 OA 
HETATM    5  P   UNL     1      -9.189  10.872  68.333  1.00  0.00    -0.178 P  
HETATM    6  P   UNL     1      -9.584  10.224  65.402  1.00  0.00    -0.296 P  
HETATM    7  O   UNL     1      -8.541  12.346  68.742  1.00  0.00    -0.015 OA 
HETATM    8  O   UNL     1      -7.723  10.232  67.938  1.00  0.00    -0.089 OA 
HETATM    9  O   UNL     1     -10.604  10.815  64.316  1.00  0.00    -0.350 OA 
HETATM   10  O   UNL     1     -10.035   8.900  65.886  1.00  0.00    -0.245 OA 
HETATM   11  O   UNL     1      -9.076  10.324  69.776  1.00  0.00    -0.175 OA 
ENDROOT
BRANCH   2  12
HETATM   12  C   UNL     1     -10.589  12.421  66.684  1.00  0.00    -0.231 C  
BRANCH  12  13
HETATM   13  N   UNL     1     -10.501  13.801  66.229  1.00  0.00    -0.286 NA 
HETATM   14  C   UNL     1     -10.670  14.876  67.077  1.00  0.00    -0.307 A  
HETATM   15  C   UNL     1     -10.586  15.994  66.283  1.00  0.00    -0.285 A  
HETATM   16  N   UNL     1     -10.360  15.635  64.988  1.00  0.00    -0.460 NA 
HETATM   17  C   UNL     1     -10.337  14.325  64.981  1.00  0.00    -0.421 A  
ENDBRANCH  12  13
ENDBRANCH   2  12
TORSDOF 2
ENDMDL
MODEL       87
REMARK 921   NORMALIZED FREE ENERGY PREDICTED BY IDOCK:   -3.57 KCAL/MOL
REMARK 922        TOTAL FREE ENERGY PREDICTED BY IDOCK:   -4.29 KCAL/MOL
REMARK 923 INTER-LIGAND FREE ENERGY PREDICTED BY IDOCK:   -4.22 KCAL/MOL
REMARK 924 INTRA-LIGAND FREE ENERGY PREDICTED BY IDOCK:   -0.07 KCAL/MOL
REMARK 927      BINDING AFFINITY PREDICTED BY RF-SCORE:    0.00 PKD
ROOT
HETATM    1  O   UNL     1     -11.210   9.478  67.781  1.00  0.00    -0.500 OA 
HETATM    2  C   UNL     1     -10.391  10.397  68.574  1.00  0.00    -0.176 C  
HETATM    3  H   UNL     1     -11.415   9.909  66.960  1.00  0.00     0.000 HD 
HETATM    4  O   UNL     1      -9.068  10.390  66.199  1.00  0.00    -0.154 OA 
HETATM    5  P   UNL     1     -11.324  11.882  69.099  1.00  0.00    -0.284 P  
HETATM    6  P   UNL     1      -8.853  10.797  67.727  1.00  0.00    -0.134 P  
HETATM    7  O   UNL     1     -12.633  10.877  69.293  1.00  0.00    -0.356 OA 
HETATM    8  O   UNL     1     -11.670  12.181  67.517  1.00  0.00    -0.415 OA 
HETATM    9  O   UNL     1      -7.771   9.713  68.198  1.00  0.00    -0.085 OA 
HETATM   10  O   UNL     1      -8.323  12.172  67.874  1.00  0.00    -0.142 OA 
HETATM   11  O   UNL     1     -12.113  13.137  69.544  1.00  0.00    -0.293 OA 
ENDROOT
BRANCH   2  12
HETATM   12  C   UNL     1     -10.056   9.690  69.919  1.00  0.00    -0.246 C  
BRANCH  12  13
HETATM   13  N   UNL     1     -10.629   8.381  70.197  1.00  0.00    -0.229 NA 
HETATM   14  C   UNL     1     -10.223   7.237  69.541  1.00  0.00    -0.198 A  
HETATM   15  C   UNL     1     -11.028   6.230  70.017  1.00  0.00    -0.358 A  
HETATM   16  N   UNL     1     -11.897   6.721  70.945  1.00  0.00    -0.370 NA 
HETATM   17  C   UNL     1     -11.653   8.007  71.016  1.00  0.00    -0.283 A  
ENDBRANCH  12  13
ENDBRANCH   2  12
TORSDOF 2
ENDMDL
MODEL       88
REMARK 921   NORMALIZED FREE ENERGY PREDICTED BY IDOCK:   -3.56 KCAL/MOL
REMARK 922        TOTAL FREE ENERGY PREDICTED BY IDOCK:   -4.29 KCAL/MOL
REMARK 923 INTER-LIGAND FREE ENERGY PREDICTED BY IDOCK:   -4.71 KCAL/MOL
REMARK 924 INTRA-LIGAND FREE ENERGY PREDICTED BY IDOCK:    0.42 KCAL/MOL
REMARK 927      BINDING AFFINITY PREDICTED BY RF-SCORE:    0.00 PKD
ROOT
HETATM    1  O   UNL     1      -6.936  17.277  68.959  1.00  0.00    -0.224 OA 
HETATM    2  C   UNL     1      -7.855  17.719  67.909  1.00  0.00    -0.231 C  
HETATM    3  H   UNL     1      -6.286  17.959  69.080  1.00  0.00     0.000 HD 
HETATM    4  O   UNL     1      -7.840  19.873  69.569  1.00  0.00    -0.072 OA 
HETATM    5  P   UNL     1      -7.041  17.819  66.272  1.00  0.00    -0.314 P  
HETATM    6  P   UNL     1      -8.689  19.248  68.372  1.00  0.00    -0.358 P  
HETATM    7  O   UNL     1      -6.196  16.458  66.713  1.00  0.00    -0.301 OA 
HETATM    8  O   UNL     1      -5.925  18.838  66.927  1.00  0.00    -0.158 OA 
HETATM    9  O   UNL     1     -10.040  18.825  69.124  1.00  0.00    -0.359 OA 
HETATM   10  O   UNL     1      -8.965  20.233  67.302  1.00  0.00    -0.342 OA 
HETATM   11  O   UNL     1      -6.353  17.902  64.888  1.00  0.00    -0.024 OA 
ENDROOT
BRANCH   2  12
HETATM   12  C   UNL     1      -8.920  16.603  67.711  1.00  0.00    -0.211 C  
BRANCH  12  13
HETATM   13  N   UNL     1      -9.762  16.625  66.524  1.00  0.00    -0.260 NA 
HETATM   14  C   UNL     1     -10.038  15.492  65.788  1.00  0.00    -0.360 A  
HETATM   15  C   UNL     1     -10.794  15.915  64.721  1.00  0.00    -0.324 A  
HETATM   16  N   UNL     1     -10.994  17.261  64.793  1.00  0.00    -0.911 NA 
HETATM   17  C   UNL     1     -10.351  17.661  65.862  1.00  0.00    -0.257 A  
ENDBRANCH  12  13
ENDBRANCH   2  12
TORSDOF 2
ENDMDL
MODEL       89
REMARK 921   NORMALIZED FREE ENERGY PREDICTED BY IDOCK:   -3.56 KCAL/MOL
REMARK 922        TOTAL FREE ENERGY PREDICTED BY IDOCK:   -4.28 KCAL/MOL
REMARK 923 INTER-LIGAND FREE ENERGY PREDICTED BY IDOCK:   -4.43 KCAL/MOL
REMARK 924 INTRA-LIGAND FREE ENERGY PREDICTED BY IDOCK:    0.14 KCAL/MOL
REMARK 927      BINDING AFFINITY PREDICTED BY RF-SCORE:    0.00 PKD
ROOT
HETATM    1  O   UNL     1     -10.387  17.775  69.481  1.00  0.00    -0.324 OA 
HETATM    2  C   UNL     1      -9.369  17.577  68.448  1.00  0.00    -0.287 C  
HETATM    3  H   UNL     1     -11.002  17.053  69.422  1.00  0.00     0.000 HD 
HETATM    4  O   UNL     1      -9.375  15.156  69.685  1.00  0.00    -0.189 OA 
HETATM    5  P   UNL     1     -10.054  17.745  66.758  1.00  0.00    -0.369 P  
HETATM    6  P   UNL     1      -8.480  16.030  68.695  1.00  0.00    -0.235 P  
HETATM    7  O   UNL     1     -11.009  18.960  67.366  1.00  0.00    -0.437 OA 
HETATM    8  O   UNL     1     -11.151  16.572  67.123  1.00  0.00    -0.119 OA 
HETATM    9  O   UNL     1      -7.216  16.368  69.620  1.00  0.00    -0.168 OA 
HETATM   10  O   UNL     1      -8.068  15.273  67.491  1.00  0.00    -0.146 OA 
HETATM   11  O   UNL     1     -10.632  17.887  65.329  1.00  0.00    -0.637 OA 
ENDROOT
BRANCH   2  12
HETATM   12  C   UNL     1      -8.362  18.758  68.545  1.00  0.00    -0.346 C  
BRANCH  12  13
HETATM   13  N   UNL     1      -7.532  19.082  67.394  1.00  0.00    -0.229 NA 
HETATM   14  C   UNL     1      -7.769  20.177  66.590  1.00  0.00    -0.295 A  
HETATM   15  C   UNL     1      -6.835  20.111  65.585  1.00  0.00    -0.287 A  
HETATM   16  N   UNL     1      -6.033  19.023  65.759  1.00  0.00    -0.175 NA 
HETATM   17  C   UNL     1      -6.484  18.416  66.829  1.00  0.00    -0.184 A  
ENDBRANCH  12  13
ENDBRANCH   2  12
TORSDOF 2
ENDMDL
MODEL       90
REMARK 921   NORMALIZED FREE ENERGY PREDICTED BY IDOCK:   -3.55 KCAL/MOL
REMARK 922        TOTAL FREE ENERGY PREDICTED BY IDOCK:   -4.27 KCAL/MOL
REMARK 923 INTER-LIGAND FREE ENERGY PREDICTED BY IDOCK:   -3.97 KCAL/MOL
REMARK 924 INTRA-LIGAND FREE ENERGY PREDICTED BY IDOCK:   -0.30 KCAL/MOL
REMARK 927      BINDING AFFINITY PREDICTED BY RF-SCORE:    0.00 PKD
ROOT
HETATM    1  O   UNL     1     -10.325   7.209  70.703  1.00  0.00    -0.202 OA 
HETATM    2  C   UNL     1      -9.983   7.083  72.121  1.00  0.00    -0.165 C  
HETATM    3  H   UNL     1      -9.678   6.723  70.205  1.00  0.00     0.000 HD 
HETATM    4  O   UNL     1      -9.959   4.486  71.316  1.00  0.00    -0.187 OA 
HETATM    5  P   UNL     1      -8.413   7.929  72.533  1.00  0.00    -0.178 P  
HETATM    6  P   UNL     1     -10.012   5.361  72.649  1.00  0.00    -0.174 P  
HETATM    7  O   UNL     1      -8.868   9.103  71.448  1.00  0.00    -0.298 OA 
HETATM    8  O   UNL     1      -7.662   7.023  71.381  1.00  0.00    -0.092 OA 
HETATM    9  O   UNL     1     -11.500   5.064  73.167  1.00  0.00    -0.327 OA 
HETATM   10  O   UNL     1      -9.008   4.930  73.647  1.00  0.00    -0.109 OA 
HETATM   11  O   UNL     1      -7.086   8.646  72.883  1.00  0.00    -0.291 OA 
ENDROOT
BRANCH   2  12
HETATM   12  C   UNL     1     -11.044   7.879  72.935  1.00  0.00    -0.379 C  
BRANCH  12  13
HETATM   13  N   UNL     1     -12.257   8.332  72.271  1.00  0.00    -0.362 NA 
HETATM   14  C   UNL     1     -12.476   9.653  71.941  1.00  0.00    -0.377 A  
HETATM   15  C   UNL     1     -13.739   9.698  71.402  1.00  0.00    -0.204 A  
HETATM   16  N   UNL     1     -14.286   8.450  71.382  1.00  0.00    -0.384 NA 
HETATM   17  C   UNL     1     -13.393   7.660  71.926  1.00  0.00    -0.245 A  
ENDBRANCH  12  13
ENDBRANCH   2  12
TORSDOF 2
ENDMDL
MODEL       91
REMARK 921   NORMALIZED FREE ENERGY PREDICTED BY IDOCK:   -3.55 KCAL/MOL
REMARK 922        TOTAL FREE ENERGY PREDICTED BY IDOCK:   -4.27 KCAL/MOL
REMARK 923 INTER-LIGAND FREE ENERGY PREDICTED BY IDOCK:   -4.17 KCAL/MOL
REMARK 924 INTRA-LIGAND FREE ENERGY PREDICTED BY IDOCK:   -0.10 KCAL/MOL
REMARK 927      BINDING AFFINITY PREDICTED BY RF-SCORE:    0.00 PKD
ROOT
HETATM    1  O   UNL     1     -12.819  14.217  68.203  1.00  0.00     0.015 OA 
HETATM    2  C   UNL     1     -11.671  14.088  69.102  1.00  0.00    -0.333 C  
HETATM    3  H   UNL     1     -13.604  14.050  68.710  1.00  0.00     0.000 HD 
HETATM    4  O   UNL     1     -13.273  15.791  70.493  1.00  0.00    -0.449 OA 
HETATM    5  P   UNL     1     -11.437  12.369  69.686  1.00  0.00    -0.063 P  
HETATM    6  P   UNL     1     -11.761  15.280  70.450  1.00  0.00    -0.380 P  
HETATM    7  O   UNL     1     -11.903  11.888  68.165  1.00  0.00    -0.424 OA 
HETATM    8  O   UNL     1     -12.982  12.388  70.256  1.00  0.00     0.248 OA 
HETATM    9  O   UNL     1     -10.994  16.597  69.953  1.00  0.00    -0.347 OA 
HETATM   10  O   UNL     1     -11.273  14.854  71.781  1.00  0.00    -0.257 OA 
HETATM   11  O   UNL     1     -11.238  10.915  70.178  1.00  0.00    -0.288 OA 
ENDROOT
BRANCH   2  12
HETATM   12  C   UNL     1     -10.385  14.363  68.271  1.00  0.00    -0.239 C  
BRANCH  12  13
HETATM   13  N   UNL     1     -10.496  14.559  66.833  1.00  0.00    -0.267 NA 
HETATM   14  C   UNL     1     -10.614  15.808  66.260  1.00  0.00    -0.310 A  
HETATM   15  C   UNL     1     -10.762  15.586  64.912  1.00  0.00    -0.392 A  
HETATM   16  N   UNL     1     -10.726  14.250  64.649  1.00  0.00    -0.403 NA 
HETATM   17  C   UNL     1     -10.590  13.661  65.811  1.00  0.00    -0.285 A  
ENDBRANCH  12  13
ENDBRANCH   2  12
TORSDOF 2
ENDMDL
MODEL       92
REMARK 921   NORMALIZED FREE ENERGY PREDICTED BY IDOCK:   -3.52 KCAL/MOL
REMARK 922        TOTAL FREE ENERGY PREDICTED BY IDOCK:   -4.23 KCAL/MOL
REMARK 923 INTER-LIGAND FREE ENERGY PREDICTED BY IDOCK:   -4.38 KCAL/MOL
REMARK 924 INTRA-LIGAND FREE ENERGY PREDICTED BY IDOCK:    0.15 KCAL/MOL
REMARK 927      BINDING AFFINITY PREDICTED BY RF-SCORE:    0.00 PKD
ROOT
HETATM    1  O   UNL     1     -10.622   7.628  73.177  1.00  0.00    -0.343 OA 
HETATM    2  C   UNL     1     -10.929   7.801  71.756  1.00  0.00    -0.239 C  
HETATM    3  H   UNL     1     -10.930   6.769  73.437  1.00  0.00     0.000 HD 
HETATM    4  O   UNL     1      -9.661   5.395  71.758  1.00  0.00    -0.145 OA 
HETATM    5  P   UNL     1     -12.731   7.886  71.442  1.00  0.00    -0.203 P  
HETATM    6  P   UNL     1     -10.100   6.555  70.753  1.00  0.00    -0.189 P  
HETATM    7  O   UNL     1     -12.845   8.736  72.866  1.00  0.00    -0.313 OA 
HETATM    8  O   UNL     1     -12.896   6.428  72.190  1.00  0.00    -0.208 OA 
HETATM    9  O   UNL     1      -8.681   7.170  70.335  1.00  0.00    -0.147 OA 
HETATM   10  O   UNL     1     -10.820   6.033  69.570  1.00  0.00    -0.297 OA 
HETATM   11  O   UNL     1     -14.254   7.960  71.176  1.00  0.00    -0.286 OA 
ENDROOT
BRANCH   2  12
HETATM   12  C   UNL     1     -10.424   9.209  71.330  1.00  0.00    -0.344 C  
BRANCH  12  13
HETATM   13  N   UNL     1     -11.012   9.853  70.165  1.00  0.00    -0.279 NA 
HETATM   14  C   UNL     1     -10.526   9.668  68.888  1.00  0.00    -0.215 A  
HETATM   15  C   UNL     1     -11.283  10.480  68.079  1.00  0.00    -0.294 A  
HETATM   16  N   UNL     1     -12.217  11.141  68.820  1.00  0.00    -0.535 NA 
HETATM   17  C   UNL     1     -12.019  10.767  70.059  1.00  0.00    -0.347 A  
ENDBRANCH  12  13
ENDBRANCH   2  12
TORSDOF 2
ENDMDL
MODEL       93
REMARK 921   NORMALIZED FREE ENERGY PREDICTED BY IDOCK:   -3.51 KCAL/MOL
REMARK 922        TOTAL FREE ENERGY PREDICTED BY IDOCK:   -4.23 KCAL/MOL
REMARK 923 INTER-LIGAND FREE ENERGY PREDICTED BY IDOCK:   -4.03 KCAL/MOL
REMARK 924 INTRA-LIGAND FREE ENERGY PREDICTED BY IDOCK:   -0.20 KCAL/MOL
REMARK 927      BINDING AFFINITY PREDICTED BY RF-SCORE:    0.00 PKD
ROOT
HETATM    1  O   UNL     1      -9.142  14.562  69.547  1.00  0.00    -0.386 OA 
HETATM    2  C   UNL     1      -9.581  14.435  68.156  1.00  0.00    -0.218 C  
HETATM    3  H   UNL     1      -8.215  14.771  69.540  1.00  0.00     0.000 HD 
HETATM    4  O   UNL     1      -8.313  16.841  68.117  1.00  0.00    -0.189 OA 
HETATM    5  P   UNL     1      -8.830  12.990  67.320  1.00  0.00    -0.212 P  
HETATM    6  P   UNL     1      -9.336  15.974  67.252  1.00  0.00    -0.216 P  
HETATM    7  O   UNL     1      -8.988  12.189  68.767  1.00  0.00    -0.043 OA 
HETATM    8  O   UNL     1      -7.343  13.584  67.705  1.00  0.00    -0.146 OA 
HETATM    9  O   UNL     1     -10.687  16.822  67.412  1.00  0.00    -0.314 OA 
HETATM   10  O   UNL     1      -8.935  15.881  65.830  1.00  0.00    -0.323 OA 
HETATM   11  O   UNL     1      -8.196  11.767  66.614  1.00  0.00    -0.171 OA 
ENDROOT
BRANCH   2  12
HETATM   12  C   UNL     1     -11.099  14.094  68.169  1.00  0.00    -0.257 C  
BRANCH  12  13
HETATM   13  N   UNL     1     -11.781  13.930  69.444  1.00  0.00    -0.294 NA 
HETATM   14  C   UNL     1     -11.991  12.696  70.022  1.00  0.00    -0.306 A  
HETATM   15  C   UNL     1     -12.715  12.939  71.165  1.00  0.00    -0.276 A  
HETATM   16  N   UNL     1     -12.939  14.276  71.304  1.00  0.00    -0.336 NA 
HETATM   17  C   UNL     1     -12.392  14.840  70.256  1.00  0.00    -0.345 A  
ENDBRANCH  12  13
ENDBRANCH   2  12
TORSDOF 2
ENDMDL
MODEL       94
REMARK 921   NORMALIZED FREE ENERGY PREDICTED BY IDOCK:   -3.51 KCAL/MOL
REMARK 922        TOTAL FREE ENERGY PREDICTED BY IDOCK:   -4.23 KCAL/MOL
REMARK 923 INTER-LIGAND FREE ENERGY PREDICTED BY IDOCK:   -3.91 KCAL/MOL
REMARK 924 INTRA-LIGAND FREE ENERGY PREDICTED BY IDOCK:   -0.32 KCAL/MOL
REMARK 927      BINDING AFFINITY PREDICTED BY RF-SCORE:    0.00 PKD
ROOT
HETATM    1  O   UNL     1      -9.034   7.311  70.274  1.00  0.00    -0.150 OA 
HETATM    2  C   UNL     1     -10.322   7.718  69.711  1.00  0.00    -0.221 C  
HETATM    3  H   UNL     1      -8.353   7.601  69.678  1.00  0.00     0.000 HD 
HETATM    4  O   UNL     1      -8.924  10.049  69.627  1.00  0.00    -0.198 OA 
HETATM    5  P   UNL     1     -10.714   6.828  68.160  1.00  0.00    -0.210 P  
HETATM    6  P   UNL     1     -10.423   9.508  69.537  1.00  0.00    -0.241 P  
HETATM    7  O   UNL     1     -10.011   5.494  68.857  1.00  0.00    -0.148 OA 
HETATM    8  O   UNL     1      -9.289   7.366  67.532  1.00  0.00    -0.129 OA 
HETATM    9  O   UNL     1     -11.047  10.069  70.903  1.00  0.00    -0.328 OA 
HETATM   10  O   UNL     1     -11.147  10.047  68.364  1.00  0.00    -0.237 OA 
HETATM   11  O   UNL     1     -11.045   6.075  66.848  1.00  0.00    -0.303 OA 
ENDROOT
BRANCH   2  12
HETATM   12  C   UNL     1     -11.436   7.243  70.687  1.00  0.00    -0.293 C  
BRANCH  12  13
HETATM   13  N   UNL     1     -11.064   6.742  72.002  1.00  0.00    -0.241 NA 
HETATM   14  C   UNL     1     -11.028   5.396  72.302  1.00  0.00    -0.216 A  
HETATM   15  C   UNL     1     -10.705   5.321  73.636  1.00  0.00    -0.294 A  
HETATM   16  N   UNL     1     -10.534   6.571  74.149  1.00  0.00    -0.311 NA 
HETATM   17  C   UNL     1     -10.775   7.398  73.162  1.00  0.00    -0.387 A  
ENDBRANCH  12  13
ENDBRANCH   2  12
TORSDOF 2
ENDMDL
MODEL       95
REMARK 921   NORMALIZED FREE ENERGY PREDICTED BY IDOCK:   -3.50 KCAL/MOL
REMARK 922        TOTAL FREE ENERGY PREDICTED BY IDOCK:   -4.21 KCAL/MOL
REMARK 923 INTER-LIGAND FREE ENERGY PREDICTED BY IDOCK:   -4.40 KCAL/MOL
REMARK 924 INTRA-LIGAND FREE ENERGY PREDICTED BY IDOCK:    0.19 KCAL/MOL
REMARK 927      BINDING AFFINITY PREDICTED BY RF-SCORE:    0.00 PKD
ROOT
HETATM    1  O   UNL     1      -6.188  15.867  67.062  1.00  0.00    -0.319 OA 
HETATM    2  C   UNL     1      -7.375  16.536  67.595  1.00  0.00    -0.138 C  
HETATM    3  H   UNL     1      -5.743  15.446  67.788  1.00  0.00     0.000 HD 
HETATM    4  O   UNL     1      -7.646  14.033  68.622  1.00  0.00    -0.123 OA 
HETATM    5  P   UNL     1      -6.948  17.936  68.695  1.00  0.00    -0.263 P  
HETATM    6  P   UNL     1      -8.499  15.357  68.365  1.00  0.00    -0.177 P  
HETATM    7  O   UNL     1      -5.689  18.247  67.656  1.00  0.00    -0.148 OA 
HETATM    8  O   UNL     1      -6.057  16.898  69.613  1.00  0.00    -0.208 OA 
HETATM    9  O   UNL     1      -9.509  14.870  67.220  1.00  0.00    -0.205 OA 
HETATM   10  O   UNL     1      -9.237  15.795  69.571  1.00  0.00    -0.260 OA 
HETATM   11  O   UNL     1      -6.586  19.120  69.624  1.00  0.00    -0.284 OA 
ENDROOT
BRANCH   2  12
HETATM   12  C   UNL     1      -8.104  17.225  66.406  1.00  0.00    -0.293 C  
BRANCH  12  13
HETATM   13  N   UNL     1      -9.077  18.273  66.678  1.00  0.00    -0.282 NA 
HETATM   14  C   UNL     1      -8.775  19.614  66.572  1.00  0.00    -0.362 A  
HETATM   15  C   UNL     1      -9.907  20.284  66.968  1.00  0.00    -0.467 A  
HETATM   16  N   UNL     1     -10.886  19.396  67.299  1.00  0.00    -0.493 NA 
HETATM   17  C   UNL     1     -10.359  18.208  67.139  1.00  0.00    -0.379 A  
ENDBRANCH  12  13
ENDBRANCH   2  12
TORSDOF 2
ENDMDL
MODEL       96
REMARK 921   NORMALIZED FREE ENERGY PREDICTED BY IDOCK:   -3.49 KCAL/MOL
REMARK 922        TOTAL FREE ENERGY PREDICTED BY IDOCK:   -4.21 KCAL/MOL
REMARK 923 INTER-LIGAND FREE ENERGY PREDICTED BY IDOCK:   -4.09 KCAL/MOL
REMARK 924 INTRA-LIGAND FREE ENERGY PREDICTED BY IDOCK:   -0.12 KCAL/MOL
REMARK 927      BINDING AFFINITY PREDICTED BY RF-SCORE:    0.00 PKD
ROOT
HETATM    1  O   UNL     1      -9.566  10.999  69.421  1.00  0.00    -0.417 OA 
HETATM    2  C   UNL     1     -10.375   9.872  68.955  1.00  0.00    -0.209 C  
HETATM    3  H   UNL     1      -8.783  10.646  69.826  1.00  0.00     0.000 HD 
HETATM    4  O   UNL     1      -7.945   9.285  67.886  1.00  0.00    -0.099 OA 
HETATM    5  P   UNL     1     -11.033   8.871  70.340  1.00  0.00    -0.227 P  
HETATM    6  P   UNL     1      -9.483   8.887  67.739  1.00  0.00    -0.148 P  
HETATM    7  O   UNL     1     -11.225  10.302  71.161  1.00  0.00    -0.277 OA 
HETATM    8  O   UNL     1      -9.490   8.662  70.876  1.00  0.00    -0.166 OA 
HETATM    9  O   UNL     1      -9.836   9.500  66.301  1.00  0.00    -0.226 OA 
HETATM   10  O   UNL     1      -9.689   7.421  67.754  1.00  0.00    -0.138 OA 
HETATM   11  O   UNL     1     -11.590   8.025  71.511  1.00  0.00    -0.260 OA 
ENDROOT
BRANCH   2  12
HETATM   12  C   UNL     1     -11.657  10.451  68.292  1.00  0.00    -0.021 C  
BRANCH  12  13
HETATM   13  N   UNL     1     -11.751  11.885  68.058  1.00  0.00    -0.460 NA 
HETATM   14  C   UNL     1     -11.620  12.444  66.803  1.00  0.00    -0.379 A  
HETATM   15  C   UNL     1     -11.697  13.802  66.991  1.00  0.00    -0.390 A  
HETATM   16  N   UNL     1     -11.882  14.085  68.311  1.00  0.00    -0.360 NA 
HETATM   17  C   UNL     1     -11.888  12.928  68.926  1.00  0.00    -0.309 A  
ENDBRANCH  12  13
ENDBRANCH   2  12
TORSDOF 2
ENDMDL
MODEL       97
REMARK 921   NORMALIZED FREE ENERGY PREDICTED BY IDOCK:   -3.47 KCAL/MOL
REMARK 922        TOTAL FREE ENERGY PREDICTED BY IDOCK:   -4.18 KCAL/MOL
REMARK 923 INTER-LIGAND FREE ENERGY PREDICTED BY IDOCK:   -4.33 KCAL/MOL
REMARK 924 INTRA-LIGAND FREE ENERGY PREDICTED BY IDOCK:    0.15 KCAL/MOL
REMARK 927      BINDING AFFINITY PREDICTED BY RF-SCORE:    0.00 PKD
ROOT
HETATM    1  O   UNL     1     -12.433  14.226  66.928  1.00  0.00    -0.581 OA 
HETATM    2  C   UNL     1     -11.106  13.950  67.482  1.00  0.00    -0.286 C  
HETATM    3  H   UNL     1     -12.994  14.499  67.645  1.00  0.00     0.000 HD 
HETATM    4  O   UNL     1     -11.616  16.428  68.479  1.00  0.00    -0.302 OA 
HETATM    5  P   UNL     1     -11.106  12.497  68.594  1.00  0.00    -0.293 P  
HETATM    6  P   UNL     1     -10.400  15.421  68.248  1.00  0.00    -0.248 P  
HETATM    7  O   UNL     1     -12.198  11.811  67.547  1.00  0.00    -0.526 OA 
HETATM    8  O   UNL     1     -12.280  13.226  69.490  1.00  0.00    -0.269 OA 
HETATM    9  O   UNL     1      -9.569  16.180  67.107  1.00  0.00    -0.225 OA 
HETATM   10  O   UNL     1      -9.581  15.236  69.466  1.00  0.00    -0.243 OA 
HETATM   11  O   UNL     1     -11.105  11.267  69.535  1.00  0.00    -0.250 OA 
ENDROOT
BRANCH   2  12
HETATM   12  C   UNL     1     -10.188  13.503  66.308  1.00  0.00    -0.299 C  
BRANCH  12  13
HETATM   13  N   UNL     1      -9.071  12.610  66.579  1.00  0.00    -0.201 NA 
HETATM   14  C   UNL     1      -7.920  13.030  67.214  1.00  0.00    -0.138 A  
HETATM   15  C   UNL     1      -7.083  11.940  67.226  1.00  0.00    -0.143 A  
HETATM   16  N   UNL     1      -7.691  10.874  66.633  1.00  0.00    -0.140 NA 
HETATM   17  C   UNL     1      -8.862  11.307  66.237  1.00  0.00    -0.191 A  
ENDBRANCH  12  13
ENDBRANCH   2  12
TORSDOF 2
ENDMDL
MODEL       98
REMARK 921   NORMALIZED FREE ENERGY PREDICTED BY IDOCK:   -3.47 KCAL/MOL
REMARK 922        TOTAL FREE ENERGY PREDICTED BY IDOCK:   -4.18 KCAL/MOL
REMARK 923 INTER-LIGAND FREE ENERGY PREDICTED BY IDOCK:   -4.85 KCAL/MOL
REMARK 924 INTRA-LIGAND FREE ENERGY PREDICTED BY IDOCK:    0.67 KCAL/MOL
REMARK 927      BINDING AFFINITY PREDICTED BY RF-SCORE:    0.00 PKD
ROOT
HETATM    1  O   UNL     1      -9.379  14.605  68.698  1.00  0.00    -0.199 OA 
HETATM    2  C   UNL     1     -10.016  14.385  67.398  1.00  0.00    -0.242 C  
HETATM    3  H   UNL     1      -9.882  15.266  69.158  1.00  0.00     0.000 HD 
HETATM    4  O   UNL     1     -12.125  14.133  69.096  1.00  0.00    -0.341 OA 
HETATM    5  P   UNL     1      -9.888  15.848  66.306  1.00  0.00    -0.357 P  
HETATM    6  P   UNL     1     -11.708  13.799  67.592  1.00  0.00    -0.381 P  
HETATM    7  O   UNL     1      -8.369  16.073  66.940  1.00  0.00    -0.195 OA 
HETATM    8  O   UNL     1     -10.614  16.746  67.481  1.00  0.00    -0.323 OA 
HETATM    9  O   UNL     1     -11.640  12.198  67.628  1.00  0.00    -0.318 OA 
HETATM   10  O   UNL     1     -12.715  14.264  66.612  1.00  0.00    -0.197 OA 
HETATM   11  O   UNL     1      -9.780  17.085  65.382  1.00  0.00    -0.467 OA 
ENDROOT
BRANCH   2  12
HETATM   12  C   UNL     1      -9.191  13.303  66.645  1.00  0.00    -0.215 C  
BRANCH  12  13
HETATM   13  N   UNL     1      -9.771  12.648  65.481  1.00  0.00    -0.160 NA 
HETATM   14  C   UNL     1      -9.667  11.290  65.263  1.00  0.00    -0.239 A  
HETATM   15  C   UNL     1     -10.268  11.061  64.049  1.00  0.00    -0.358 A  
HETATM   16  N   UNL     1     -10.742  12.229  63.531  1.00  0.00    -0.456 NA 
HETATM   17  C   UNL     1     -10.413  13.160  64.392  1.00  0.00    -0.407 A  
ENDBRANCH  12  13
ENDBRANCH   2  12
TORSDOF 2
ENDMDL
MODEL       99
REMARK 921   NORMALIZED FREE ENERGY PREDICTED BY IDOCK:   -3.46 KCAL/MOL
REMARK 922        TOTAL FREE ENERGY PREDICTED BY IDOCK:   -4.17 KCAL/MOL
REMARK 923 INTER-LIGAND FREE ENERGY PREDICTED BY IDOCK:   -3.93 KCAL/MOL
REMARK 924 INTRA-LIGAND FREE ENERGY PREDICTED BY IDOCK:   -0.24 KCAL/MOL
REMARK 927      BINDING AFFINITY PREDICTED BY RF-SCORE:    0.00 PKD
ROOT
HETATM    1  O   UNL     1      -9.861  11.459  69.439  1.00  0.00    -0.418 OA 
HETATM    2  C   UNL     1      -9.836  10.986  68.054  1.00  0.00    -0.171 C  
HETATM    3  H   UNL     1     -10.665  11.147  69.836  1.00  0.00     0.000 HD 
HETATM    4  O   UNL     1     -10.360   8.688  69.410  1.00  0.00    -0.210 OA 
HETATM    5  P   UNL     1     -11.139  11.764  67.031  1.00  0.00    -0.321 P  
HETATM    6  P   UNL     1      -9.864   9.186  67.978  1.00  0.00    -0.185 P  
HETATM    7  O   UNL     1     -10.852  13.157  67.890  1.00  0.00    -0.233 OA 
HETATM    8  O   UNL     1     -12.260  11.220  68.108  1.00  0.00    -0.622 OA 
HETATM    9  O   UNL     1      -8.337   8.701  67.981  1.00  0.00    -0.121 OA 
HETATM   10  O   UNL     1     -10.618   8.556  66.870  1.00  0.00    -0.298 OA 
HETATM   11  O   UNL     1     -12.241  12.423  66.166  1.00  0.00    -0.635 OA 
ENDROOT
BRANCH   2  12
HETATM   12  C   UNL     1      -8.518  11.497  67.404  1.00  0.00    -0.147 C  
BRANCH  12  13
HETATM   13  N   UNL     1      -7.573  12.254  68.212  1.00  0.00    -0.125 NA 
HETATM   14  C   UNL     1      -6.639  11.649  69.026  1.00  0.00    -0.092 A  
HETATM   15  C   UNL     1      -5.987  12.672  69.670  1.00  0.00    -0.122 A  
HETATM   16  N   UNL     1      -6.484  13.875  69.265  1.00  0.00    -0.110 NA 
HETATM   17  C   UNL     1      -7.441  13.596  68.415  1.00  0.00    -0.123 A  
ENDBRANCH  12  13
ENDBRANCH   2  12
TORSDOF 2
ENDMDL
MODEL      100
REMARK 921   NORMALIZED FREE ENERGY PREDICTED BY IDOCK:   -3.44 KCAL/MOL
REMARK 922        TOTAL FREE ENERGY PREDICTED BY IDOCK:   -4.15 KCAL/MOL
REMARK 923 INTER-LIGAND FREE ENERGY PREDICTED BY IDOCK:   -4.34 KCAL/MOL
REMARK 924 INTRA-LIGAND FREE ENERGY PREDICTED BY IDOCK:    0.19 KCAL/MOL
REMARK 927      BINDING AFFINITY PREDICTED BY RF-SCORE:    0.00 PKD
ROOT
HETATM    1  O   UNL     1     -11.174   6.670  73.336  1.00  0.00    -0.489 OA 
HETATM    2  C   UNL     1     -10.485   7.321  72.221  1.00  0.00    -0.214 C  
HETATM    3  H   UNL     1     -10.905   5.760  73.351  1.00  0.00     0.000 HD 
HETATM    4  O   UNL     1      -8.421   6.111  73.514  1.00  0.00    -0.119 OA 
HETATM    5  P   UNL     1     -11.045   6.690  70.596  1.00  0.00    -0.345 P  
HETATM    6  P   UNL     1      -8.697   7.245  72.425  1.00  0.00    -0.124 P  
HETATM    7  O   UNL     1     -12.567   6.606  71.257  1.00  0.00    -0.317 OA 
HETATM    8  O   UNL     1     -10.646   5.169  71.088  1.00  0.00    -0.205 OA 
HETATM    9  O   UNL     1      -8.268   8.566  73.224  1.00  0.00    -0.374 OA 
HETATM   10  O   UNL     1      -7.872   7.071  71.209  1.00  0.00    -0.097 OA 
HETATM   11  O   UNL     1     -11.519   6.156  69.222  1.00  0.00    -0.404 OA 
ENDROOT
BRANCH   2  12
HETATM   12  C   UNL     1     -10.927   8.812  72.197  1.00  0.00    -0.334 C  
BRANCH  12  13
HETATM   13  N   UNL     1     -10.857   9.555  70.947  1.00  0.00    -0.311 NA 
HETATM   14  C   UNL     1     -11.965  10.133  70.362  1.00  0.00    -0.267 A  
HETATM   15  C   UNL     1     -11.521  10.676  69.181  1.00  0.00    -0.280 A  
HETATM   16  N   UNL     1     -10.184  10.458  69.036  1.00  0.00    -0.204 NA 
HETATM   17  C   UNL     1      -9.819   9.770  70.089  1.00  0.00    -0.255 A  
ENDBRANCH  12  13
ENDBRANCH   2  12
TORSDOF 2
ENDMDL
MODEL      101
REMARK 921   NORMALIZED FREE ENERGY PREDICTED BY IDOCK:   -3.42 KCAL/MOL
REMARK 922        TOTAL FREE ENERGY PREDICTED BY IDOCK:   -4.12 KCAL/MOL
REMARK 923 INTER-LIGAND FREE ENERGY PREDICTED BY IDOCK:   -3.81 KCAL/MOL
REMARK 924 INTRA-LIGAND FREE ENERGY PREDICTED BY IDOCK:   -0.31 KCAL/MOL
REMARK 927      BINDING AFFINITY PREDICTED BY RF-SCORE:    0.00 PKD
ROOT
HETATM    1  O   UNL     1     -11.646   8.037  69.584  1.00  0.00    -0.374 OA 
HETATM    2  C   UNL     1     -10.280   8.294  69.123  1.00  0.00    -0.218 C  
HETATM    3  H   UNL     1     -12.237   8.252  68.873  1.00  0.00     0.000 HD 
HETATM    4  O   UNL     1     -11.261   6.748  67.112  1.00  0.00    -0.379 OA 
HETATM    5  P   UNL     1      -9.967  10.075  68.840  1.00  0.00    -0.217 P  
HETATM    6  P   UNL     1      -9.872   7.273  67.695  1.00  0.00    -0.176 P  
HETATM    7  O   UNL     1     -10.918  10.359  70.172  1.00  0.00    -0.284 OA 
HETATM    8  O   UNL     1     -11.247  10.100  67.804  1.00  0.00    -0.289 OA 
HETATM    9  O   UNL     1      -9.231   5.919  68.265  1.00  0.00    -0.117 OA 
HETATM   10  O   UNL     1      -9.009   7.867  66.649  1.00  0.00    -0.136 OA 
HETATM   11  O   UNL     1      -9.701  11.581  68.601  1.00  0.00    -0.197 OA 
ENDROOT
BRANCH   2  12
HETATM   12  C   UNL     1      -9.313   7.940  70.289  1.00  0.00    -0.159 C  
BRANCH  12  13
HETATM   13  N   UNL     1      -9.845   7.315  71.490  1.00  0.00    -0.174 NA 
HETATM   14  C   UNL     1     -10.091   8.020  72.649  1.00  0.00    -0.301 A  
HETATM   15  C   UNL     1     -10.515   7.090  73.568  1.00  0.00    -0.375 A  
HETATM   16  N   UNL     1     -10.545   5.851  73.003  1.00  0.00    -0.228 NA 
HETATM   17  C   UNL     1     -10.120   6.009  71.774  1.00  0.00    -0.188 A  
ENDBRANCH  12  13
ENDBRANCH   2  12
TORSDOF 2
ENDMDL
MODEL      102
REMARK 921   NORMALIZED FREE ENERGY PREDICTED BY IDOCK:   -3.42 KCAL/MOL
REMARK 922        TOTAL FREE ENERGY PREDICTED BY IDOCK:   -4.12 KCAL/MOL
REMARK 923 INTER-LIGAND FREE ENERGY PREDICTED BY IDOCK:   -4.25 KCAL/MOL
REMARK 924 INTRA-LIGAND FREE ENERGY PREDICTED BY IDOCK:    0.13 KCAL/MOL
REMARK 927      BINDING AFFINITY PREDICTED BY RF-SCORE:    0.00 PKD
ROOT
HETATM    1  O   UNL     1      -7.493  19.236  69.078  1.00  0.00    -0.352 OA 
HETATM    2  C   UNL     1      -8.221  18.851  67.868  1.00  0.00    -0.277 C  
HETATM    3  H   UNL     1      -7.667  20.156  69.240  1.00  0.00     0.000 HD 
HETATM    4  O   UNL     1     -10.176  20.049  69.329  1.00  0.00    -0.344 OA 
HETATM    5  P   UNL     1      -7.562  19.674  66.371  1.00  0.00    -0.317 P  
HETATM    6  P   UNL     1      -9.996  19.083  68.072  1.00  0.00    -0.415 P  
HETATM    7  O   UNL     1      -6.055  19.487  67.045  1.00  0.00    -0.181 OA 
HETATM    8  O   UNL     1      -7.812  21.128  67.102  1.00  0.00    -0.266 OA 
HETATM    9  O   UNL     1     -10.577  17.703  68.643  1.00  0.00    -0.335 OA 
HETATM   10  O   UNL     1     -10.771  19.538  66.896  1.00  0.00    -0.461 OA 
HETATM   11  O   UNL     1      -7.004  20.368  65.105  1.00  0.00    -0.297 OA 
ENDROOT
BRANCH   2  12
HETATM   12  C   UNL     1      -7.936  17.345  67.604  1.00  0.00    -0.193 C  
BRANCH  12  13
HETATM   13  N   UNL     1      -7.159  16.587  68.574  1.00  0.00    -0.156 NA 
HETATM   14  C   UNL     1      -7.639  15.446  69.182  1.00  0.00    -0.198 A  
HETATM   15  C   UNL     1      -6.664  15.060  70.070  1.00  0.00    -0.147 A  
HETATM   16  N   UNL     1      -5.608  15.919  70.012  1.00  0.00    -0.148 NA 
HETATM   17  C   UNL     1      -5.938  16.830  69.131  1.00  0.00    -0.165 A  
ENDBRANCH  12  13
ENDBRANCH   2  12
TORSDOF 2
ENDMDL
MODEL      103
REMARK 921   NORMALIZED FREE ENERGY PREDICTED BY IDOCK:   -3.41 KCAL/MOL
REMARK 922        TOTAL FREE ENERGY PREDICTED BY IDOCK:   -4.12 KCAL/MOL
REMARK 923 INTER-LIGAND FREE ENERGY PREDICTED BY IDOCK:   -3.82 KCAL/MOL
REMARK 924 INTRA-LIGAND FREE ENERGY PREDICTED BY IDOCK:   -0.30 KCAL/MOL
REMARK 927      BINDING AFFINITY PREDICTED BY RF-SCORE:    0.00 PKD
ROOT
HETATM    1  O   UNL     1     -11.004  11.551  66.646  1.00  0.00    -0.276 OA 
HETATM    2  C   UNL     1     -10.291  11.941  67.864  1.00  0.00    -0.198 C  
HETATM    3  H   UNL     1     -11.455  12.319  66.316  1.00  0.00     0.000 HD 
HETATM    4  O   UNL     1      -9.473  13.852  66.111  1.00  0.00    -0.255 OA 
HETATM    5  P   UNL     1     -11.433  12.376  69.226  1.00  0.00    -0.249 P  
HETATM    6  P   UNL     1      -9.079  13.230  67.526  1.00  0.00    -0.234 P  
HETATM    7  O   UNL     1     -12.408  11.147  68.678  1.00  0.00    -0.549 OA 
HETATM    8  O   UNL     1     -12.130  13.495  68.239  1.00  0.00    -0.354 OA 
HETATM    9  O   UNL     1      -7.703  12.486  67.175  1.00  0.00    -0.162 OA 
HETATM   10  O   UNL     1      -8.871  14.268  68.560  1.00  0.00    -0.179 OA 
HETATM   11  O   UNL     1     -12.399  12.743  70.379  1.00  0.00    -0.318 OA 
ENDROOT
BRANCH   2  12
HETATM   12  C   UNL     1      -9.553  10.683  68.403  1.00  0.00    -0.168 C  
BRANCH  12  13
HETATM   13  N   UNL     1      -9.562   9.459  67.614  1.00  0.00    -0.132 NA 
HETATM   14  C   UNL     1     -10.466   8.441  67.832  1.00  0.00    -0.193 A  
HETATM   15  C   UNL     1     -10.122   7.443  66.952  1.00  0.00    -0.257 A  
HETATM   16  N   UNL     1      -9.050   7.826  66.204  1.00  0.00    -0.172 NA 
HETATM   17  C   UNL     1      -8.723   9.020  66.633  1.00  0.00    -0.128 A  
ENDBRANCH  12  13
ENDBRANCH   2  12
TORSDOF 2
ENDMDL
MODEL      104
REMARK 921   NORMALIZED FREE ENERGY PREDICTED BY IDOCK:   -3.39 KCAL/MOL
REMARK 922        TOTAL FREE ENERGY PREDICTED BY IDOCK:   -4.10 KCAL/MOL
REMARK 923 INTER-LIGAND FREE ENERGY PREDICTED BY IDOCK:   -4.61 KCAL/MOL
REMARK 924 INTRA-LIGAND FREE ENERGY PREDICTED BY IDOCK:    0.51 KCAL/MOL
REMARK 927      BINDING AFFINITY PREDICTED BY RF-SCORE:    0.00 PKD
ROOT
HETATM    1  O   UNL     1      -8.469  17.373  69.204  1.00  0.00    -0.113 OA 
HETATM    2  C   UNL     1      -8.424  17.655  67.768  1.00  0.00    -0.227 C  
HETATM    3  H   UNL     1      -9.255  16.867  69.375  1.00  0.00     0.000 HD 
HETATM    4  O   UNL     1      -8.823  14.965  67.789  1.00  0.00    -0.166 OA 
HETATM    5  P   UNL     1      -9.770  18.777  67.239  1.00  0.00    -0.329 P  
HETATM    6  P   UNL     1      -8.359  16.134  66.806  1.00  0.00    -0.318 P  
HETATM    7  O   UNL     1      -9.553  19.568  68.684  1.00  0.00    -0.376 OA 
HETATM    8  O   UNL     1     -10.858  17.717  67.876  1.00  0.00    -0.374 OA 
HETATM    9  O   UNL     1      -6.809  15.783  66.602  1.00  0.00    -0.162 OA 
HETATM   10  O   UNL     1      -9.082  16.104  65.515  1.00  0.00    -0.344 OA 
HETATM   11  O   UNL     1     -10.908  19.726  66.791  1.00  0.00    -0.472 OA 
ENDROOT
BRANCH   2  12
HETATM   12  C   UNL     1      -7.137  18.483  67.490  1.00  0.00    -0.206 C  
BRANCH  12  13
HETATM   13  N   UNL     1      -6.530  19.242  68.574  1.00  0.00    -0.241 NA 
HETATM   14  C   UNL     1      -6.157  18.663  69.769  1.00  0.00    -0.234 A  
HETATM   15  C   UNL     1      -5.695  19.692  70.552  1.00  0.00    -0.254 A  
HETATM   16  N   UNL     1      -5.764  20.870  69.871  1.00  0.00    -0.476 NA 
HETATM   17  C   UNL     1      -6.285  20.577  68.705  1.00  0.00    -0.318 A  
ENDBRANCH  12  13
ENDBRANCH   2  12
TORSDOF 2
ENDMDL
MODEL      105
REMARK 921   NORMALIZED FREE ENERGY PREDICTED BY IDOCK:   -3.39 KCAL/MOL
REMARK 922        TOTAL FREE ENERGY PREDICTED BY IDOCK:   -4.10 KCAL/MOL
REMARK 923 INTER-LIGAND FREE ENERGY PREDICTED BY IDOCK:   -3.83 KCAL/MOL
REMARK 924 INTRA-LIGAND FREE ENERGY PREDICTED BY IDOCK:   -0.27 KCAL/MOL
REMARK 927      BINDING AFFINITY PREDICTED BY RF-SCORE:    0.00 PKD
ROOT
HETATM    1  O   UNL     1     -11.246   9.082  67.510  1.00  0.00    -0.397 OA 
HETATM    2  C   UNL     1     -10.171   9.637  68.334  1.00  0.00    -0.188 C  
HETATM    3  H   UNL     1     -11.423   8.202  67.820  1.00  0.00     0.000 HD 
HETATM    4  O   UNL     1     -11.913   8.748  70.224  1.00  0.00     0.023 OA 
HETATM    5  P   UNL     1      -8.580   8.771  68.075  1.00  0.00    -0.134 P  
HETATM    6  P   UNL     1     -10.653   9.715  70.068  1.00  0.00    -0.300 P  
HETATM    7  O   UNL     1      -9.007   8.660  66.473  1.00  0.00    -0.138 OA 
HETATM    8  O   UNL     1      -9.326   7.356  68.468  1.00  0.00    -0.142 OA 
HETATM    9  O   UNL     1     -11.325  11.153  70.295  1.00  0.00    -0.268 OA 
HETATM   10  O   UNL     1      -9.611   9.452  71.086  1.00  0.00    -0.253 OA 
HETATM   11  O   UNL     1      -7.234   8.038  67.856  1.00  0.00    -0.087 OA 
ENDROOT
BRANCH   2  12
HETATM   12  C   UNL     1      -9.881  11.078  67.826  1.00  0.00    -0.173 C  
BRANCH  12  13
HETATM   13  N   UNL     1     -10.762  11.673  66.831  1.00  0.00    -0.244 NA 
HETATM   14  C   UNL     1     -10.536  11.560  65.475  1.00  0.00    -0.275 A  
HETATM   15  C   UNL     1     -11.525  12.298  64.870  1.00  0.00    -0.332 A  
HETATM   16  N   UNL     1     -12.347  12.842  65.811  1.00  0.00    -0.594 NA 
HETATM   17  C   UNL     1     -11.858  12.473  66.969  1.00  0.00    -0.323 A  
ENDBRANCH  12  13
ENDBRANCH   2  12
TORSDOF 2
ENDMDL
MODEL      106
REMARK 921   NORMALIZED FREE ENERGY PREDICTED BY IDOCK:   -3.38 KCAL/MOL
REMARK 922        TOTAL FREE ENERGY PREDICTED BY IDOCK:   -4.09 KCAL/MOL
REMARK 923 INTER-LIGAND FREE ENERGY PREDICTED BY IDOCK:   -3.77 KCAL/MOL
REMARK 924 INTRA-LIGAND FREE ENERGY PREDICTED BY IDOCK:   -0.31 KCAL/MOL
REMARK 927      BINDING AFFINITY PREDICTED BY RF-SCORE:    0.00 PKD
ROOT
HETATM    1  O   UNL     1      -8.414  11.404  65.641  1.00  0.00    -0.366 OA 
HETATM    2  C   UNL     1      -9.046  10.222  65.051  1.00  0.00    -0.207 C  
HETATM    3  H   UNL     1      -7.513  11.180  65.842  1.00  0.00     0.000 HD 
HETATM    4  O   UNL     1      -6.793  10.453  63.546  1.00  0.00    -0.112 OA 
HETATM    5  P   UNL     1      -9.209   8.850  66.251  1.00  0.00    -0.241 P  
HETATM    6  P   UNL     1      -8.215   9.730  63.530  1.00  0.00    -0.187 P  
HETATM    7  O   UNL     1      -9.535  10.011  67.394  1.00  0.00    -0.149 OA 
HETATM    8  O   UNL     1      -7.584   8.923  66.504  1.00  0.00    -0.090 OA 
HETATM    9  O   UNL     1      -8.952  10.499  62.333  1.00  0.00    -0.218 OA 
HETATM   10  O   UNL     1      -8.108   8.282  63.242  1.00  0.00    -0.159 OA 
HETATM   11  O   UNL     1      -9.349   7.690  67.266  1.00  0.00    -0.137 OA 
ENDROOT
BRANCH   2  12
HETATM   12  C   UNL     1     -10.521  10.590  64.723  1.00  0.00    -0.128 C  
BRANCH  12  13
HETATM   13  N   UNL     1     -10.950  11.977  64.828  1.00  0.00    -0.301 NA 
HETATM   14  C   UNL     1     -11.573  12.481  65.950  1.00  0.00    -0.405 A  
HETATM   15  C   UNL     1     -11.882  13.785  65.651  1.00  0.00    -0.365 A  
HETATM   16  N   UNL     1     -11.458  14.092  64.392  1.00  0.00    -0.367 NA 
HETATM   17  C   UNL     1     -10.927  12.992  63.917  1.00  0.00    -0.339 A  
ENDBRANCH  12  13
ENDBRANCH   2  12
TORSDOF 2
ENDMDL
MODEL      107
REMARK 921   NORMALIZED FREE ENERGY PREDICTED BY IDOCK:   -3.38 KCAL/MOL
REMARK 922        TOTAL FREE ENERGY PREDICTED BY IDOCK:   -4.09 KCAL/MOL
REMARK 923 INTER-LIGAND FREE ENERGY PREDICTED BY IDOCK:   -3.83 KCAL/MOL
REMARK 924 INTRA-LIGAND FREE ENERGY PREDICTED BY IDOCK:   -0.25 KCAL/MOL
REMARK 927      BINDING AFFINITY PREDICTED BY RF-SCORE:    0.00 PKD
ROOT
HETATM    1  O   UNL     1     -11.226   9.497  67.857  1.00  0.00    -0.519 OA 
HETATM    2  C   UNL     1     -10.777  10.542  68.778  1.00  0.00    -0.216 C  
HETATM    3  H   UNL     1     -12.146   9.648  67.676  1.00  0.00     0.000 HD 
HETATM    4  O   UNL     1     -11.976  12.007  66.826  1.00  0.00    -0.616 OA 
HETATM    5  P   UNL     1     -11.560  10.398  70.427  1.00  0.00    -0.369 P  
HETATM    6  P   UNL     1     -10.969  12.180  68.052  1.00  0.00    -0.268 P  
HETATM    7  O   UNL     1     -11.439   8.751  70.237  1.00  0.00    -0.212 OA 
HETATM    8  O   UNL     1     -13.034  10.468  69.695  1.00  0.00    -0.088 OA 
HETATM    9  O   UNL     1      -9.597  12.511  67.293  1.00  0.00    -0.197 OA 
HETATM   10  O   UNL     1     -11.359  13.290  68.949  1.00  0.00    -0.255 OA 
HETATM   11  O   UNL     1     -12.221  10.275  71.821  1.00  0.00    -0.351 OA 
ENDROOT
BRANCH   2  12
HETATM   12  C   UNL     1      -9.270  10.296  69.075  1.00  0.00    -0.183 C  
BRANCH  12  13
HETATM   13  N   UNL     1      -8.577   9.215  68.389  1.00  0.00    -0.128 NA 
HETATM   14  C   UNL     1      -7.987   9.376  67.153  1.00  0.00    -0.102 A  
HETATM   15  C   UNL     1      -7.503   8.138  66.807  1.00  0.00    -0.090 A  
HETATM   16  N   UNL     1      -7.768   7.237  67.794  1.00  0.00    -0.110 NA 
HETATM   17  C   UNL     1      -8.428   7.899  68.713  1.00  0.00    -0.128 A  
ENDBRANCH  12  13
ENDBRANCH   2  12
TORSDOF 2
ENDMDL
MODEL      108
REMARK 921   NORMALIZED FREE ENERGY PREDICTED BY IDOCK:   -3.36 KCAL/MOL
REMARK 922        TOTAL FREE ENERGY PREDICTED BY IDOCK:   -4.06 KCAL/MOL
REMARK 923 INTER-LIGAND FREE ENERGY PREDICTED BY IDOCK:   -3.93 KCAL/MOL
REMARK 924 INTRA-LIGAND FREE ENERGY PREDICTED BY IDOCK:   -0.13 KCAL/MOL
REMARK 927      BINDING AFFINITY PREDICTED BY RF-SCORE:    0.00 PKD
ROOT
HETATM    1  O   UNL     1      -9.312  12.157  65.323  1.00  0.00    -0.432 OA 
HETATM    2  C   UNL     1      -9.467  12.542  66.726  1.00  0.00    -0.231 C  
HETATM    3  H   UNL     1     -10.033  12.541  64.837  1.00  0.00     0.000 HD 
HETATM    4  O   UNL     1      -9.669  14.945  65.470  1.00  0.00    -0.331 OA 
HETATM    5  P   UNL     1     -10.945  11.784  67.495  1.00  0.00    -0.294 P  
HETATM    6  P   UNL     1      -9.416  14.333  66.921  1.00  0.00    -0.281 P  
HETATM    7  O   UNL     1     -10.605  10.431  66.593  1.00  0.00    -0.231 OA 
HETATM    8  O   UNL     1     -11.866  12.459  66.309  1.00  0.00    -0.473 OA 
HETATM    9  O   UNL     1      -7.882  14.725  67.170  1.00  0.00    -0.200 OA 
HETATM   10  O   UNL     1     -10.290  14.939  67.950  1.00  0.00    -0.234 OA 
HETATM   11  O   UNL     1     -12.194  11.141  68.146  1.00  0.00    -0.612 OA 
ENDROOT
BRANCH   2  12
HETATM   12  C   UNL     1      -8.287  11.915  67.522  1.00  0.00    -0.158 C  
BRANCH  12  13
HETATM   13  N   UNL     1      -7.284  11.135  66.811  1.00  0.00    -0.139 NA 
HETATM   14  C   UNL     1      -6.040  11.638  66.492  1.00  0.00    -0.026 A  
HETATM   15  C   UNL     1      -5.412  10.649  65.774  1.00  0.00    -0.121 A  
HETATM   16  N   UNL     1      -6.226   9.563  65.658  1.00  0.00    -0.063 NA 
HETATM   17  C   UNL     1      -7.341   9.887  66.264  1.00  0.00    -0.102 A  
ENDBRANCH  12  13
ENDBRANCH   2  12
TORSDOF 2
ENDMDL
MODEL      109
REMARK 921   NORMALIZED FREE ENERGY PREDICTED BY IDOCK:   -3.35 KCAL/MOL
REMARK 922        TOTAL FREE ENERGY PREDICTED BY IDOCK:   -4.04 KCAL/MOL
REMARK 923 INTER-LIGAND FREE ENERGY PREDICTED BY IDOCK:   -4.91 KCAL/MOL
REMARK 924 INTRA-LIGAND FREE ENERGY PREDICTED BY IDOCK:    0.86 KCAL/MOL
REMARK 927      BINDING AFFINITY PREDICTED BY RF-SCORE:    0.00 PKD
ROOT
HETATM    1  O   UNL     1      -9.340  16.631  65.945  1.00  0.00    -0.457 OA 
HETATM    2  C   UNL     1      -9.623  16.426  67.367  1.00  0.00    -0.231 C  
HETATM    3  H   UNL     1      -8.503  17.077  65.879  1.00  0.00     0.000 HD 
HETATM    4  O   UNL     1      -7.103  15.427  67.158  1.00  0.00    -0.193 OA 
HETATM    5  P   UNL     1      -9.914  18.002  68.251  1.00  0.00    -0.408 P  
HETATM    6  P   UNL     1      -8.356  15.408  68.145  1.00  0.00    -0.154 P  
HETATM    7  O   UNL     1     -10.689  18.523  66.877  1.00  0.00    -0.383 OA 
HETATM    8  O   UNL     1      -8.441  18.525  67.732  1.00  0.00    -0.263 OA 
HETATM    9  O   UNL     1      -8.843  13.887  68.013  1.00  0.00    -0.167 OA 
HETATM   10  O   UNL     1      -7.980  15.724  69.541  1.00  0.00    -0.232 OA 
HETATM   11  O   UNL     1     -10.161  19.335  68.999  1.00  0.00    -0.415 OA 
ENDROOT
BRANCH   2  12
HETATM   12  C   UNL     1     -10.993  15.696  67.475  1.00  0.00    -0.309 C  
BRANCH  12  13
HETATM   13  N   UNL     1     -11.458  15.247  68.779  1.00  0.00    -0.312 NA 
HETATM   14  C   UNL     1     -11.398  16.041  69.905  1.00  0.00    -0.340 A  
HETATM   15  C   UNL     1     -11.857  15.260  70.937  1.00  0.00    -0.341 A  
HETATM   16  N   UNL     1     -12.204  14.026  70.474  1.00  0.00    -0.343 NA 
HETATM   17  C   UNL     1     -11.936  14.038  69.192  1.00  0.00    -0.360 A  
ENDBRANCH  12  13
ENDBRANCH   2  12
TORSDOF 2
ENDMDL
MODEL      110
REMARK 921   NORMALIZED FREE ENERGY PREDICTED BY IDOCK:   -3.34 KCAL/MOL
REMARK 922        TOTAL FREE ENERGY PREDICTED BY IDOCK:   -4.04 KCAL/MOL
REMARK 923 INTER-LIGAND FREE ENERGY PREDICTED BY IDOCK:   -3.77 KCAL/MOL
REMARK 924 INTRA-LIGAND FREE ENERGY PREDICTED BY IDOCK:   -0.27 KCAL/MOL
REMARK 927      BINDING AFFINITY PREDICTED BY RF-SCORE:    0.00 PKD
ROOT
HETATM    1  O   UNL     1     -11.790   6.701  70.028  1.00  0.00    -0.597 OA 
HETATM    2  C   UNL     1     -10.600   6.921  70.853  1.00  0.00    -0.218 C  
HETATM    3  H   UNL     1     -12.461   6.323  70.584  1.00  0.00     0.000 HD 
HETATM    4  O   UNL     1     -12.534   8.113  72.348  1.00  0.00    -0.322 OA 
HETATM    5  P   UNL     1      -9.846   5.350  71.415  1.00  0.00    -0.179 P  
HETATM    6  P   UNL     1     -10.946   8.057  72.208  1.00  0.00    -0.368 P  
HETATM    7  O   UNL     1     -10.247   4.733  69.925  1.00  0.00    -0.252 OA 
HETATM    8  O   UNL     1     -11.293   4.934  72.081  1.00  0.00     0.048 OA 
HETATM    9  O   UNL     1     -10.621   9.530  71.667  1.00  0.00    -0.291 OA 
HETATM   10  O   UNL     1     -10.274   7.809  73.503  1.00  0.00    -0.323 OA 
HETATM   11  O   UNL     1      -9.207   4.022  71.889  1.00  0.00    -0.117 OA 
ENDROOT
BRANCH   2  12
HETATM   12  C   UNL     1      -9.501   7.540  69.943  1.00  0.00    -0.160 C  
BRANCH  12  13
HETATM   13  N   UNL     1      -9.879   8.106  68.656  1.00  0.00    -0.177 NA 
HETATM   14  C   UNL     1      -9.660   7.450  67.462  1.00  0.00    -0.140 A  
HETATM   15  C   UNL     1     -10.080   8.314  66.480  1.00  0.00    -0.233 A  
HETATM   16  N   UNL     1     -10.555   9.464  67.037  1.00  0.00    -0.233 NA 
HETATM   17  C   UNL     1     -10.403   9.322  68.331  1.00  0.00    -0.209 A  
ENDBRANCH  12  13
ENDBRANCH   2  12
TORSDOF 2
ENDMDL
MODEL      111
REMARK 921   NORMALIZED FREE ENERGY PREDICTED BY IDOCK:   -3.33 KCAL/MOL
REMARK 922        TOTAL FREE ENERGY PREDICTED BY IDOCK:   -4.02 KCAL/MOL
REMARK 923 INTER-LIGAND FREE ENERGY PREDICTED BY IDOCK:   -3.84 KCAL/MOL
REMARK 924 INTRA-LIGAND FREE ENERGY PREDICTED BY IDOCK:   -0.18 KCAL/MOL
REMARK 927      BINDING AFFINITY PREDICTED BY RF-SCORE:    0.00 PKD
ROOT
HETATM    1  O   UNL     1     -12.016  12.241  67.184  1.00  0.00    -0.564 OA 
HETATM    2  C   UNL     1     -10.559  12.197  67.319  1.00  0.00    -0.227 C  
HETATM    3  H   UNL     1     -12.216  12.534  66.303  1.00  0.00     0.000 HD 
HETATM    4  O   UNL     1     -10.943  10.780  65.030  1.00  0.00    -0.087 OA 
HETATM    5  P   UNL     1      -9.805  13.863  67.250  1.00  0.00    -0.255 P  
HETATM    6  P   UNL     1      -9.829  11.047  66.140  1.00  0.00    -0.247 P  
HETATM    7  O   UNL     1     -11.132  14.397  68.097  1.00  0.00    -0.249 OA 
HETATM    8  O   UNL     1     -10.530  14.093  65.789  1.00  0.00    -0.289 OA 
HETATM    9  O   UNL     1      -9.759   9.622  66.871  1.00  0.00    -0.167 OA 
HETATM   10  O   UNL     1      -8.520  11.404  65.550  1.00  0.00    -0.015 OA 
HETATM   11  O   UNL     1      -9.168  15.273  67.192  1.00  0.00    -0.196 OA 
ENDROOT
BRANCH   2  12
HETATM   12  C   UNL     1     -10.232  11.715  68.762  1.00  0.00    -0.177 C  
BRANCH  12  13
HETATM   13  N   UNL     1     -11.324  11.404  69.673  1.00  0.00    -0.277 NA 
HETATM   14  C   UNL     1     -11.802  10.123  69.851  1.00  0.00    -0.135 A  
HETATM   15  C   UNL     1     -12.860  10.238  70.720  1.00  0.00    -0.344 A  
HETATM   16  N   UNL     1     -13.032  11.540  71.082  1.00  0.00    -0.302 NA 
HETATM   17  C   UNL     1     -12.120  12.215  70.428  1.00  0.00    -0.309 A  
ENDBRANCH  12  13
ENDBRANCH   2  12
TORSDOF 2
ENDMDL
MODEL      112
REMARK 921   NORMALIZED FREE ENERGY PREDICTED BY IDOCK:   -3.32 KCAL/MOL
REMARK 922        TOTAL FREE ENERGY PREDICTED BY IDOCK:   -4.02 KCAL/MOL
REMARK 923 INTER-LIGAND FREE ENERGY PREDICTED BY IDOCK:   -3.78 KCAL/MOL
REMARK 924 INTRA-LIGAND FREE ENERGY PREDICTED BY IDOCK:   -0.24 KCAL/MOL
REMARK 927      BINDING AFFINITY PREDICTED BY RF-SCORE:    0.00 PKD
ROOT
HETATM    1  O   UNL     1      -8.476  15.739  66.264  1.00  0.00    -0.298 OA 
HETATM    2  C   UNL     1      -9.082  16.117  67.542  1.00  0.00    -0.203 C  
HETATM    3  H   UNL     1      -7.540  15.650  66.403  1.00  0.00     0.000 HD 
HETATM    4  O   UNL     1      -7.601  13.951  68.253  1.00  0.00    -0.110 OA 
HETATM    5  P   UNL     1      -8.575  17.791  68.082  1.00  0.00    -0.272 P  
HETATM    6  P   UNL     1      -8.796  14.858  68.797  1.00  0.00    -0.161 P  
HETATM    7  O   UNL     1      -8.642  18.227  66.480  1.00  0.00    -0.263 OA 
HETATM    8  O   UNL     1      -7.003  17.310  67.982  1.00  0.00    -0.169 OA 
HETATM    9  O   UNL     1     -10.031  13.840  68.718  1.00  0.00    -0.203 OA 
HETATM   10  O   UNL     1      -8.571  15.311  70.188  1.00  0.00     0.136 OA 
HETATM   11  O   UNL     1      -8.147  19.207  68.539  1.00  0.00    -0.333 OA 
ENDROOT
BRANCH   2  12
HETATM   12  C   UNL     1     -10.614  16.263  67.313  1.00  0.00    -0.298 C  
BRANCH  12  13
HETATM   13  N   UNL     1     -11.173  15.939  66.009  1.00  0.00    -0.014 NA 
HETATM   14  C   UNL     1     -11.655  14.685  65.697  1.00  0.00    -0.328 A  
HETATM   15  C   UNL     1     -12.028  14.749  64.376  1.00  0.00    -0.417 A  
HETATM   16  N   UNL     1     -11.802  15.998  63.883  1.00  0.00    -0.788 NA 
HETATM   17  C   UNL     1     -11.272  16.680  64.868  1.00  0.00    -0.061 A  
ENDBRANCH  12  13
ENDBRANCH   2  12
TORSDOF 2
ENDMDL
MODEL      113
REMARK 921   NORMALIZED FREE ENERGY PREDICTED BY IDOCK:   -3.32 KCAL/MOL
REMARK 922        TOTAL FREE ENERGY PREDICTED BY IDOCK:   -4.02 KCAL/MOL
REMARK 923 INTER-LIGAND FREE ENERGY PREDICTED BY IDOCK:   -3.80 KCAL/MOL
REMARK 924 INTRA-LIGAND FREE ENERGY PREDICTED BY IDOCK:   -0.22 KCAL/MOL
REMARK 927      BINDING AFFINITY PREDICTED BY RF-SCORE:    0.00 PKD
ROOT
HETATM    1  O   UNL     1      -9.074  10.623  69.531  1.00  0.00    -0.389 OA 
HETATM    2  C   UNL     1      -9.706  10.094  68.321  1.00  0.00    -0.141 C  
HETATM    3  H   UNL     1      -8.542  11.368  69.277  1.00  0.00     0.000 HD 
HETATM    4  O   UNL     1     -10.329  12.736  68.157  1.00  0.00    -0.225 OA 
HETATM    5  P   UNL     1      -8.488   9.366  67.164  1.00  0.00    -0.128 P  
HETATM    6  P   UNL     1     -10.762  11.328  67.543  1.00  0.00    -0.267 P  
HETATM    7  O   UNL     1      -7.682   8.812  68.507  1.00  0.00    -0.096 OA 
HETATM    8  O   UNL     1      -7.685  10.804  67.159  1.00  0.00    -0.112 OA 
HETATM    9  O   UNL     1     -12.226  11.143  68.170  1.00  0.00    -0.612 OA 
HETATM   10  O   UNL     1     -10.819  11.353  66.064  1.00  0.00    -0.279 OA 
HETATM   11  O   UNL     1      -7.458   8.750  66.186  1.00  0.00    -0.088 OA 
ENDROOT
BRANCH   2  12
HETATM   12  C   UNL     1     -10.577   8.874  68.737  1.00  0.00    -0.157 C  
BRANCH  12  13
HETATM   13  N   UNL     1     -10.766   8.584  70.150  1.00  0.00    -0.234 NA 
HETATM   14  C   UNL     1     -11.676   9.263  70.934  1.00  0.00    -0.296 A  
HETATM   15  C   UNL     1     -11.519   8.764  72.204  1.00  0.00    -0.351 A  
HETATM   16  N   UNL     1     -10.555   7.800  72.215  1.00  0.00    -0.239 NA 
HETATM   17  C   UNL     1     -10.109   7.729  70.985  1.00  0.00    -0.185 A  
ENDBRANCH  12  13
ENDBRANCH   2  12
TORSDOF 2
ENDMDL
MODEL      114
REMARK 921   NORMALIZED FREE ENERGY PREDICTED BY IDOCK:   -3.32 KCAL/MOL
REMARK 922        TOTAL FREE ENERGY PREDICTED BY IDOCK:   -4.01 KCAL/MOL
REMARK 923 INTER-LIGAND FREE ENERGY PREDICTED BY IDOCK:   -3.77 KCAL/MOL
REMARK 924 INTRA-LIGAND FREE ENERGY PREDICTED BY IDOCK:   -0.24 KCAL/MOL
REMARK 927      BINDING AFFINITY PREDICTED BY RF-SCORE:    0.00 PKD
ROOT
HETATM    1  O   UNL     1      -8.773   7.063  70.224  1.00  0.00    -0.142 OA 
HETATM    2  C   UNL     1     -10.088   7.085  70.868  1.00  0.00    -0.193 C  
HETATM    3  H   UNL     1      -8.161   7.502  70.802  1.00  0.00     0.000 HD 
HETATM    4  O   UNL     1      -8.517   6.096  72.855  1.00  0.00    -0.120 OA 
HETATM    5  P   UNL     1     -10.769   8.779  70.996  1.00  0.00    -0.277 P  
HETATM    6  P   UNL     1     -10.055   6.220  72.448  1.00  0.00    -0.181 P  
HETATM    7  O   UNL     1     -10.095   9.063  69.505  1.00  0.00    -0.186 OA 
HETATM    8  O   UNL     1      -9.406   9.230  71.803  1.00  0.00    -0.309 OA 
HETATM    9  O   UNL     1     -10.430   4.692  72.144  1.00  0.00    -0.197 OA 
HETATM   10  O   UNL     1     -10.886   6.761  73.547  1.00  0.00    -0.295 OA 
HETATM   11  O   UNL     1     -11.346  10.211  71.104  1.00  0.00    -0.346 OA 
ENDROOT
BRANCH   2  12
HETATM   12  C   UNL     1     -11.091   6.366  69.921  1.00  0.00    -0.381 C  
BRANCH  12  13
HETATM   13  N   UNL     1     -10.594   5.725  68.713  1.00  0.00    -0.248 NA 
HETATM   14  C   UNL     1     -10.901   6.181  67.448  1.00  0.00    -0.343 A  
HETATM   15  C   UNL     1     -10.316   5.292  66.579  1.00  0.00    -0.285 A  
HETATM   16  N   UNL     1      -9.656   4.322  67.272  1.00  0.00    -0.184 NA 
HETATM   17  C   UNL     1      -9.856   4.591  68.539  1.00  0.00    -0.089 A  
ENDBRANCH  12  13
ENDBRANCH   2  12
TORSDOF 2
ENDMDL
MODEL      115
REMARK 921   NORMALIZED FREE ENERGY PREDICTED BY IDOCK:   -3.26 KCAL/MOL
REMARK 922        TOTAL FREE ENERGY PREDICTED BY IDOCK:   -3.95 KCAL/MOL
REMARK 923 INTER-LIGAND FREE ENERGY PREDICTED BY IDOCK:   -4.14 KCAL/MOL
REMARK 924 INTRA-LIGAND FREE ENERGY PREDICTED BY IDOCK:    0.18 KCAL/MOL
REMARK 927      BINDING AFFINITY PREDICTED BY RF-SCORE:    0.00 PKD
ROOT
HETATM    1  O   UNL     1      -8.535  12.625  66.461  1.00  0.00    -0.408 OA 
HETATM    2  C   UNL     1      -9.913  12.419  66.908  1.00  0.00    -0.215 C  
HETATM    3  H   UNL     1      -8.423  12.154  65.644  1.00  0.00     0.000 HD 
HETATM    4  O   UNL     1     -10.282  13.230  64.339  1.00  0.00    -0.392 OA 
HETATM    5  P   UNL     1     -10.239  10.680  67.376  1.00  0.00    -0.229 P  
HETATM    6  P   UNL     1     -11.092  13.054  65.702  1.00  0.00    -0.291 P  
HETATM    7  O   UNL     1      -8.699  10.656  67.998  1.00  0.00    -0.122 OA 
HETATM    8  O   UNL     1      -9.741  10.219  65.875  1.00  0.00    -0.196 OA 
HETATM    9  O   UNL     1     -11.381  14.580  66.101  1.00  0.00    -0.338 OA 
HETATM   10  O   UNL     1     -12.356  12.308  65.515  1.00  0.00    -0.602 OA 
HETATM   11  O   UNL     1     -10.515   9.209  67.772  1.00  0.00    -0.232 OA 
ENDROOT
BRANCH   2  12
HETATM   12  C   UNL     1     -10.097  13.190  68.247  1.00  0.00    -0.247 C  
BRANCH  12  13
HETATM   13  N   UNL     1      -9.065  14.122  68.678  1.00  0.00    -0.174 NA 
HETATM   14  C   UNL     1      -9.341  15.428  69.025  1.00  0.00    -0.232 A  
HETATM   15  C   UNL     1      -8.125  16.004  69.304  1.00  0.00    -0.212 A  
HETATM   16  N   UNL     1      -7.126  15.091  69.149  1.00  0.00    -0.136 NA 
HETATM   17  C   UNL     1      -7.710  13.987  68.755  1.00  0.00    -0.112 A  
ENDBRANCH  12  13
ENDBRANCH   2  12
TORSDOF 2
ENDMDL
MODEL      116
REMARK 921   NORMALIZED FREE ENERGY PREDICTED BY IDOCK:   -3.23 KCAL/MOL
REMARK 922        TOTAL FREE ENERGY PREDICTED BY IDOCK:   -3.92 KCAL/MOL
REMARK 923 INTER-LIGAND FREE ENERGY PREDICTED BY IDOCK:   -3.77 KCAL/MOL
REMARK 924 INTRA-LIGAND FREE ENERGY PREDICTED BY IDOCK:   -0.15 KCAL/MOL
REMARK 927      BINDING AFFINITY PREDICTED BY RF-SCORE:    0.00 PKD
ROOT
HETATM    1  O   UNL     1     -11.520  14.449  67.722  1.00  0.00    -0.301 OA 
HETATM    2  C   UNL     1     -11.099  13.220  67.049  1.00  0.00    -0.282 C  
HETATM    3  H   UNL     1     -12.436  14.352  67.956  1.00  0.00     0.000 HD 
HETATM    4  O   UNL     1     -12.251  12.243  69.311  1.00  0.00    -0.198 OA 
HETATM    5  P   UNL     1     -11.924  12.996  65.431  1.00  0.00    -0.464 P  
HETATM    6  P   UNL     1     -11.277  11.790  68.131  1.00  0.00    -0.316 P  
HETATM    7  O   UNL     1     -11.793  14.642  65.242  1.00  0.00    -0.355 OA 
HETATM    8  O   UNL     1     -13.378  13.106  66.196  1.00  0.00     0.438 OA 
HETATM    9  O   UNL     1      -9.886  11.626  68.910  1.00  0.00    -0.154 OA 
HETATM   10  O   UNL     1     -11.693  10.509  67.517  1.00  0.00    -0.356 OA 
HETATM   11  O   UNL     1     -12.622  12.808  64.062  1.00  0.00    -0.620 OA 
ENDROOT
BRANCH   2  12
HETATM   12  C   UNL     1      -9.599  13.380  66.668  1.00  0.00    -0.270 C  
BRANCH  12  13
HETATM   13  N   UNL     1      -8.848  14.510  67.194  1.00  0.00    -0.217 NA 
HETATM   14  C   UNL     1      -7.972  14.393  68.253  1.00  0.00    -0.140 A  
HETATM   15  C   UNL     1      -7.515  15.665  68.500  1.00  0.00    -0.123 A  
HETATM   16  N   UNL     1      -8.073  16.544  67.621  1.00  0.00    -0.161 NA 
HETATM   17  C   UNL     1      -8.879  15.835  66.870  1.00  0.00    -0.245 A  
ENDBRANCH  12  13
ENDBRANCH   2  12
TORSDOF 2
ENDMDL
MODEL      117
REMARK 921   NORMALIZED FREE ENERGY PREDICTED BY IDOCK:   -3.22 KCAL/MOL
REMARK 922        TOTAL FREE ENERGY PREDICTED BY IDOCK:   -3.91 KCAL/MOL
REMARK 923 INTER-LIGAND FREE ENERGY PREDICTED BY IDOCK:   -3.61 KCAL/MOL
REMARK 924 INTRA-LIGAND FREE ENERGY PREDICTED BY IDOCK:   -0.29 KCAL/MOL
REMARK 927      BINDING AFFINITY PREDICTED BY RF-SCORE:    0.00 PKD
ROOT
HETATM    1  O   UNL     1     -10.929   9.101  67.382  1.00  0.00    -0.434 OA 
HETATM    2  C   UNL     1     -10.130  10.287  67.696  1.00  0.00    -0.191 C  
HETATM    3  H   UNL     1     -11.694   9.388  66.899  1.00  0.00     0.000 HD 
HETATM    4  O   UNL     1     -10.523  10.581  65.022  1.00  0.00    -0.286 OA 
HETATM    5  P   UNL     1     -10.978  11.402  68.875  1.00  0.00    -0.255 P  
HETATM    6  P   UNL     1      -9.593  11.129  66.197  1.00  0.00    -0.230 P  
HETATM    7  O   UNL     1     -11.541  10.030  69.624  1.00  0.00    -0.196 OA 
HETATM    8  O   UNL     1     -12.255  11.472  67.836  1.00  0.00    -0.586 OA 
HETATM    9  O   UNL     1      -8.173  10.500  65.800  1.00  0.00    -0.152 OA 
HETATM   10  O   UNL     1      -9.529  12.607  66.222  1.00  0.00    -0.243 OA 
HETATM   11  O   UNL     1     -11.695  12.345  69.872  1.00  0.00    -0.309 OA 
ENDROOT
BRANCH   2  12
HETATM   12  C   UNL     1      -8.876   9.817  68.488  1.00  0.00    -0.121 C  
BRANCH  12  13
HETATM   13  N   UNL     1      -8.536   8.402  68.506  1.00  0.00    -0.131 NA 
HETATM   14  C   UNL     1      -8.788   7.590  69.592  1.00  0.00    -0.141 A  
HETATM   15  C   UNL     1      -8.272   6.359  69.264  1.00  0.00    -0.115 A  
HETATM   16  N   UNL     1      -7.727   6.395  68.016  1.00  0.00    -0.102 NA 
HETATM   17  C   UNL     1      -7.877   7.627  67.597  1.00  0.00    -0.123 A  
ENDBRANCH  12  13
ENDBRANCH   2  12
TORSDOF 2
ENDMDL
MODEL      118
REMARK 921   NORMALIZED FREE ENERGY PREDICTED BY IDOCK:   -3.20 KCAL/MOL
REMARK 922        TOTAL FREE ENERGY PREDICTED BY IDOCK:   -3.89 KCAL/MOL
REMARK 923 INTER-LIGAND FREE ENERGY PREDICTED BY IDOCK:   -4.13 KCAL/MOL
REMARK 924 INTRA-LIGAND FREE ENERGY PREDICTED BY IDOCK:    0.25 KCAL/MOL
REMARK 927      BINDING AFFINITY PREDICTED BY RF-SCORE:    0.00 PKD
ROOT
HETATM    1  O   UNL     1     -12.816  14.100  66.485  1.00  0.00    -0.472 OA 
HETATM    2  C   UNL     1     -11.385  13.819  66.606  1.00  0.00    -0.328 C  
HETATM    3  H   UNL     1     -12.935  15.038  66.568  1.00  0.00     0.000 HD 
HETATM    4  O   UNL     1     -11.406  15.771  64.713  1.00  0.00    -0.392 OA 
HETATM    5  P   UNL     1     -10.747  14.178  68.284  1.00  0.00    -0.263 P  
HETATM    6  P   UNL     1     -10.446  14.644  65.308  1.00  0.00    -0.421 P  
HETATM    7  O   UNL     1     -12.195  13.598  68.858  1.00  0.00    -0.336 OA 
HETATM    8  O   UNL     1     -11.316  15.717  68.134  1.00  0.00    -0.336 OA 
HETATM    9  O   UNL     1     -10.359  13.617  64.081  1.00  0.00    -0.315 OA 
HETATM   10  O   UNL     1      -9.107  15.169  65.655  1.00  0.00    -0.099 OA 
HETATM   11  O   UNL     1     -10.208  14.481  69.704  1.00  0.00    -0.049 OA 
ENDROOT
BRANCH   2  12
HETATM   12  C   UNL     1     -11.190  12.282  66.471  1.00  0.00    -0.324 C  
BRANCH  12  13
HETATM   13  N   UNL     1     -10.025  11.656  67.077  1.00  0.00    -0.202 NA 
HETATM   14  C   UNL     1     -10.122  10.593  67.951  1.00  0.00    -0.168 A  
HETATM   15  C   UNL     1      -8.837  10.328  68.358  1.00  0.00    -0.129 A  
HETATM   16  N   UNL     1      -7.966  11.183  67.753  1.00  0.00    -0.113 NA 
HETATM   17  C   UNL     1      -8.701  11.977  67.014  1.00  0.00    -0.188 A  
ENDBRANCH  12  13
ENDBRANCH   2  12
TORSDOF 2
ENDMDL
MODEL      119
REMARK 921   NORMALIZED FREE ENERGY PREDICTED BY IDOCK:   -3.20 KCAL/MOL
REMARK 922        TOTAL FREE ENERGY PREDICTED BY IDOCK:   -3.88 KCAL/MOL
REMARK 923 INTER-LIGAND FREE ENERGY PREDICTED BY IDOCK:   -3.57 KCAL/MOL
REMARK 924 INTRA-LIGAND FREE ENERGY PREDICTED BY IDOCK:   -0.32 KCAL/MOL
REMARK 927      BINDING AFFINITY PREDICTED BY RF-SCORE:    0.00 PKD
ROOT
HETATM    1  O   UNL     1      -8.823   8.105  69.187  1.00  0.00    -0.142 OA 
HETATM    2  C   UNL     1     -10.212   8.417  69.526  1.00  0.00    -0.207 C  
HETATM    3  H   UNL     1      -8.293   8.860  69.413  1.00  0.00     0.000 HD 
HETATM    4  O   UNL     1      -8.926   9.044  71.838  1.00  0.00    -0.364 OA 
HETATM    5  P   UNL     1     -10.903   9.745  68.473  1.00  0.00    -0.096 P  
HETATM    6  P   UNL     1     -10.394   8.752  71.287  1.00  0.00    -0.317 P  
HETATM    7  O   UNL     1     -10.032   9.079  67.224  1.00  0.00    -0.183 OA 
HETATM    8  O   UNL     1      -9.660  10.718  68.944  1.00  0.00    -0.188 OA 
HETATM    9  O   UNL     1     -10.727   7.350  71.990  1.00  0.00    -0.212 OA 
HETATM   10  O   UNL     1     -11.366   9.791  71.694  1.00  0.00    -0.349 OA 
HETATM   11  O   UNL     1     -11.487  10.867  67.581  1.00  0.00    -0.468 OA 
ENDROOT
BRANCH   2  12
HETATM   12  C   UNL     1     -11.079   7.179  69.156  1.00  0.00    -0.043 C  
BRANCH  12  13
HETATM   13  N   UNL     1     -10.422   5.948  68.743  1.00  0.00    -0.222 NA 
HETATM   14  C   UNL     1     -10.274   5.591  67.419  1.00  0.00    -0.209 A  
HETATM   15  C   UNL     1      -9.677   4.354  67.431  1.00  0.00    -0.174 A  
HETATM   16  N   UNL     1      -9.449   3.955  68.714  1.00  0.00    -0.164 NA 
HETATM   17  C   UNL     1      -9.921   4.911  69.474  1.00  0.00    -0.225 A  
ENDBRANCH  12  13
ENDBRANCH   2  12
TORSDOF 2
ENDMDL
MODEL      120
REMARK 921   NORMALIZED FREE ENERGY PREDICTED BY IDOCK:   -3.20 KCAL/MOL
REMARK 922        TOTAL FREE ENERGY PREDICTED BY IDOCK:   -3.88 KCAL/MOL
REMARK 923 INTER-LIGAND FREE ENERGY PREDICTED BY IDOCK:   -4.03 KCAL/MOL
REMARK 924 INTRA-LIGAND FREE ENERGY PREDICTED BY IDOCK:    0.15 KCAL/MOL
REMARK 927      BINDING AFFINITY PREDICTED BY RF-SCORE:    0.00 PKD
ROOT
HETATM    1  O   UNL     1      -9.841  10.943  69.475  1.00  0.00    -0.425 OA 
HETATM    2  C   UNL     1      -9.547  11.566  68.184  1.00  0.00    -0.187 C  
HETATM    3  H   UNL     1      -9.186  10.273  69.629  1.00  0.00     0.000 HD 
HETATM    4  O   UNL     1      -7.133  11.708  69.427  1.00  0.00    -0.092 OA 
HETATM    5  P   UNL     1      -9.790  10.411  66.784  1.00  0.00    -0.210 P  
HETATM    6  P   UNL     1      -7.917  12.333  68.185  1.00  0.00    -0.168 P  
HETATM    7  O   UNL     1     -11.093   9.814  67.625  1.00  0.00    -0.244 OA 
HETATM    8  O   UNL     1      -8.732   9.373  67.502  1.00  0.00    -0.122 OA 
HETATM    9  O   UNL     1      -8.121  13.848  68.666  1.00  0.00    -0.141 OA 
HETATM   10  O   UNL     1      -7.128  12.276  66.934  1.00  0.00    -0.081 OA 
HETATM   11  O   UNL     1      -9.997   9.435  65.601  1.00  0.00    -0.304 OA 
ENDROOT
BRANCH   2  12
HETATM   12  C   UNL     1     -10.620  12.664  67.933  1.00  0.00    -0.220 C  
BRANCH  12  13
HETATM   13  N   UNL     1     -10.834  13.154  66.579  1.00  0.00    -0.278 NA 
HETATM   14  C   UNL     1     -11.947  12.823  65.835  1.00  0.00    -0.449 A  
HETATM   15  C   UNL     1     -11.762  13.409  64.606  1.00  0.00    -0.372 A  
HETATM   16  N   UNL     1     -10.583  14.092  64.585  1.00  0.00    -0.414 NA 
HETATM   17  C   UNL     1     -10.041  13.906  65.762  1.00  0.00    -0.320 A  
ENDBRANCH  12  13
ENDBRANCH   2  12
TORSDOF 2
ENDMDL
MODEL      121
REMARK 921   NORMALIZED FREE ENERGY PREDICTED BY IDOCK:   -3.20 KCAL/MOL
REMARK 922        TOTAL FREE ENERGY PREDICTED BY IDOCK:   -3.88 KCAL/MOL
REMARK 923 INTER-LIGAND FREE ENERGY PREDICTED BY IDOCK:   -3.80 KCAL/MOL
REMARK 924 INTRA-LIGAND FREE ENERGY PREDICTED BY IDOCK:   -0.08 KCAL/MOL
REMARK 927      BINDING AFFINITY PREDICTED BY RF-SCORE:    0.00 PKD
ROOT
HETATM    1  O   UNL     1     -10.577  10.046  71.287  1.00  0.00    -0.215 OA 
HETATM    2  C   UNL     1     -10.484   8.704  70.710  1.00  0.00    -0.204 C  
HETATM    3  H   UNL     1     -10.364   9.979  72.210  1.00  0.00     0.000 HD 
HETATM    4  O   UNL     1      -8.096   8.918  71.993  1.00  0.00    -0.355 OA 
HETATM    5  P   UNL     1     -11.775   7.580  71.358  1.00  0.00    -0.307 P  
HETATM    6  P   UNL     1      -8.820   8.034  70.879  1.00  0.00    -0.149 P  
HETATM    7  O   UNL     1     -12.796   8.890  71.336  1.00  0.00    -0.321 OA 
HETATM    8  O   UNL     1     -11.242   7.902  72.882  1.00  0.00    -0.398 OA 
HETATM    9  O   UNL     1      -8.016   8.460  69.560  1.00  0.00    -0.106 OA 
HETATM   10  O   UNL     1      -8.685   6.583  71.136  1.00  0.00    -0.136 OA 
HETATM   11  O   UNL     1     -12.867   6.629  71.905  1.00  0.00    -0.328 OA 
ENDROOT
BRANCH   2  12
HETATM   12  C   UNL     1     -10.832   8.814  69.197  1.00  0.00    -0.053 C  
BRANCH  12  13
HETATM   13  N   UNL     1     -10.915  10.130  68.581  1.00  0.00    -0.236 NA 
HETATM   14  C   UNL     1      -9.960  10.604  67.706  1.00  0.00    -0.167 A  
HETATM   15  C   UNL     1     -10.342  11.886  67.395  1.00  0.00    -0.207 A  
HETATM   16  N   UNL     1     -11.501  12.201  68.041  1.00  0.00    -0.296 NA 
HETATM   17  C   UNL     1     -11.807  11.147  68.756  1.00  0.00    -0.320 A  
ENDBRANCH  12  13
ENDBRANCH   2  12
TORSDOF 2
ENDMDL
MODEL      122
REMARK 921   NORMALIZED FREE ENERGY PREDICTED BY IDOCK:   -3.18 KCAL/MOL
REMARK 922        TOTAL FREE ENERGY PREDICTED BY IDOCK:   -3.86 KCAL/MOL
REMARK 923 INTER-LIGAND FREE ENERGY PREDICTED BY IDOCK:   -4.70 KCAL/MOL
REMARK 924 INTRA-LIGAND FREE ENERGY PREDICTED BY IDOCK:    0.84 KCAL/MOL
REMARK 927      BINDING AFFINITY PREDICTED BY RF-SCORE:    0.00 PKD
ROOT
HETATM    1  O   UNL     1      -9.110  12.583  68.475  1.00  0.00    -0.329 OA 
HETATM    2  C   UNL     1      -9.832  13.642  67.767  1.00  0.00    -0.232 C  
HETATM    3  H   UNL     1      -9.037  12.843  69.386  1.00  0.00     0.000 HD 
HETATM    4  O   UNL     1     -11.480  13.166  69.877  1.00  0.00    -0.205 OA 
HETATM    5  P   UNL     1      -8.876  15.200  67.685  1.00  0.00    -0.187 P  
HETATM    6  P   UNL     1     -11.486  13.869  68.445  1.00  0.00    -0.358 P  
HETATM    7  O   UNL     1      -7.525  14.252  67.490  1.00  0.00    -0.167 OA 
HETATM    8  O   UNL     1      -8.767  15.180  69.329  1.00  0.00    -0.219 OA 
HETATM    9  O   UNL     1     -12.459  12.900  67.618  1.00  0.00    -0.098 OA 
HETATM   10  O   UNL     1     -12.027  15.245  68.495  1.00  0.00    -0.310 OA 
HETATM   11  O   UNL     1      -8.066  16.518  67.615  1.00  0.00    -0.159 OA 
ENDROOT
BRANCH   2  12
HETATM   12  C   UNL     1      -9.953  13.217  66.276  1.00  0.00    -0.285 C  
BRANCH  12  13
HETATM   13  N   UNL     1     -10.792  13.997  65.379  1.00  0.00    -0.313 NA 
HETATM   14  C   UNL     1     -10.626  15.354  65.197  1.00  0.00    -0.434 A  
HETATM   15  C   UNL     1     -11.632  15.742  64.345  1.00  0.00    -0.240 A  
HETATM   16  N   UNL     1     -12.393  14.666  63.997  1.00  0.00    -0.764 NA 
HETATM   17  C   UNL     1     -11.886  13.646  64.643  1.00  0.00    -0.397 A  
ENDBRANCH  12  13
ENDBRANCH   2  12
TORSDOF 2
ENDMDL
MODEL      123
REMARK 921   NORMALIZED FREE ENERGY PREDICTED BY IDOCK:   -3.16 KCAL/MOL
REMARK 922        TOTAL FREE ENERGY PREDICTED BY IDOCK:   -3.84 KCAL/MOL
REMARK 923 INTER-LIGAND FREE ENERGY PREDICTED BY IDOCK:   -3.59 KCAL/MOL
REMARK 924 INTRA-LIGAND FREE ENERGY PREDICTED BY IDOCK:   -0.24 KCAL/MOL
REMARK 927      BINDING AFFINITY PREDICTED BY RF-SCORE:    0.00 PKD
ROOT
HETATM    1  O   UNL     1      -9.485   9.647  69.532  1.00  0.00    -0.174 OA 
HETATM    2  C   UNL     1      -9.974   9.810  68.162  1.00  0.00    -0.154 C  
HETATM    3  H   UNL     1      -8.609   9.282  69.485  1.00  0.00     0.000 HD 
HETATM    4  O   UNL     1      -7.554  11.043  68.034  1.00  0.00    -0.088 OA 
HETATM    5  P   UNL     1     -10.231   8.205  67.321  1.00  0.00    -0.320 P  
HETATM    6  P   UNL     1      -8.924  10.935  67.224  1.00  0.00    -0.138 P  
HETATM    7  O   UNL     1     -10.762   7.628  68.785  1.00  0.00    -0.177 OA 
HETATM    8  O   UNL     1      -8.659   7.828  67.636  1.00  0.00    -0.123 OA 
HETATM    9  O   UNL     1      -9.530  12.405  67.424  1.00  0.00    -0.179 OA 
HETATM   10  O   UNL     1      -8.710  10.641  65.790  1.00  0.00    -0.170 OA 
HETATM   11  O   UNL     1     -10.449   6.848  66.609  1.00  0.00    -0.223 OA 
ENDROOT
BRANCH   2  12
HETATM   12  C   UNL     1     -11.409  10.407  68.241  1.00  0.00    -0.224 C  
BRANCH  12  13
HETATM   13  N   UNL     1     -11.868  10.993  69.491  1.00  0.00    -0.307 NA 
HETATM   14  C   UNL     1     -12.523  10.261  70.459  1.00  0.00    -0.267 A  
HETATM   15  C   UNL     1     -12.855  11.160  71.445  1.00  0.00    -0.439 A  
HETATM   16  N   UNL     1     -12.413  12.405  71.113  1.00  0.00    -0.303 NA 
HETATM   17  C   UNL     1     -11.850  12.282  69.936  1.00  0.00    -0.311 A  
ENDBRANCH  12  13
ENDBRANCH   2  12
TORSDOF 2
ENDMDL
MODEL      124
REMARK 921   NORMALIZED FREE ENERGY PREDICTED BY IDOCK:   -3.13 KCAL/MOL
REMARK 922        TOTAL FREE ENERGY PREDICTED BY IDOCK:   -3.81 KCAL/MOL
REMARK 923 INTER-LIGAND FREE ENERGY PREDICTED BY IDOCK:   -3.57 KCAL/MOL
REMARK 924 INTRA-LIGAND FREE ENERGY PREDICTED BY IDOCK:   -0.23 KCAL/MOL
REMARK 927      BINDING AFFINITY PREDICTED BY RF-SCORE:    0.00 PKD
ROOT
HETATM    1  O   UNL     1     -11.252   8.960  69.034  1.00  0.00    -0.434 OA 
HETATM    2  C   UNL     1     -10.063   8.151  69.309  1.00  0.00    -0.202 C  
HETATM    3  H   UNL     1     -11.913   8.731  69.677  1.00  0.00     0.000 HD 
HETATM    4  O   UNL     1     -10.587   9.211  71.757  1.00  0.00    -0.352 OA 
HETATM    5  P   UNL     1     -10.350   6.370  69.001  1.00  0.00    -0.250 P  
HETATM    6  P   UNL     1      -9.414   8.484  70.956  1.00  0.00    -0.226 P  
HETATM    7  O   UNL     1     -11.281   6.837  67.707  1.00  0.00    -0.226 OA 
HETATM    8  O   UNL     1     -11.616   6.427  70.053  1.00  0.00    -0.425 OA 
HETATM    9  O   UNL     1      -8.349   9.671  70.800  1.00  0.00    -0.264 OA 
HETATM   10  O   UNL     1      -8.836   7.350  71.710  1.00  0.00    -0.116 OA 
HETATM   11  O   UNL     1     -10.591   4.863  68.741  1.00  0.00     0.006 OA 
ENDROOT
BRANCH   2  12
HETATM   12  C   UNL     1      -8.982   8.527  68.255  1.00  0.00    -0.139 C  
BRANCH  12  13
HETATM   13  N   UNL     1      -9.220   9.650  67.360  1.00  0.00    -0.130 NA 
HETATM   14  C   UNL     1      -8.976  10.957  67.725  1.00  0.00    -0.139 A  
HETATM   15  C   UNL     1      -9.382  11.724  66.660  1.00  0.00    -0.198 A  
HETATM   16  N   UNL     1      -9.852  10.926  65.659  1.00  0.00    -0.228 NA 
HETATM   17  C   UNL     1      -9.765   9.700  66.111  1.00  0.00    -0.252 A  
ENDBRANCH  12  13
ENDBRANCH   2  12
TORSDOF 2
ENDMDL
MODEL      125
REMARK 921   NORMALIZED FREE ENERGY PREDICTED BY IDOCK:   -3.13 KCAL/MOL
REMARK 922        TOTAL FREE ENERGY PREDICTED BY IDOCK:   -3.80 KCAL/MOL
REMARK 923 INTER-LIGAND FREE ENERGY PREDICTED BY IDOCK:   -4.10 KCAL/MOL
REMARK 924 INTRA-LIGAND FREE ENERGY PREDICTED BY IDOCK:    0.30 KCAL/MOL
REMARK 927      BINDING AFFINITY PREDICTED BY RF-SCORE:    0.00 PKD
ROOT
HETATM    1  O   UNL     1      -7.542  17.239  68.088  1.00  0.00    -0.197 OA 
HETATM    2  C   UNL     1      -8.015  17.767  66.808  1.00  0.00    -0.238 C  
HETATM    3  H   UNL     1      -7.176  17.963  68.583  1.00  0.00     0.000 HD 
HETATM    4  O   UNL     1      -9.189  19.469  68.574  1.00  0.00    -0.347 OA 
HETATM    5  P   UNL     1      -6.643  18.351  65.747  1.00  0.00    -0.242 P  
HETATM    6  P   UNL     1      -9.294  19.013  67.049  1.00  0.00    -0.334 P  
HETATM    7  O   UNL     1      -5.768  17.064  66.331  1.00  0.00    -0.299 OA 
HETATM    8  O   UNL     1      -6.168  19.348  66.969  1.00  0.00    -0.179 OA 
HETATM    9  O   UNL     1     -10.698  18.239  67.044  1.00  0.00    -0.370 OA 
HETATM   10  O   UNL     1      -9.320  20.162  66.117  1.00  0.00    -0.353 OA 
HETATM   11  O   UNL     1      -5.482  18.843  64.850  1.00  0.00    -0.180 OA 
ENDROOT
BRANCH   2  12
HETATM   12  C   UNL     1      -8.614  16.580  65.999  1.00  0.00    -0.206 C  
BRANCH  12  13
HETATM   13  N   UNL     1      -8.780  15.289  66.649  1.00  0.00    -0.282 NA 
HETATM   14  C   UNL     1      -9.930  14.537  66.526  1.00  0.00    -0.280 A  
HETATM   15  C   UNL     1      -9.742  13.435  67.325  1.00  0.00    -0.232 A  
HETATM   16  N   UNL     1      -8.516  13.487  67.916  1.00  0.00    -0.166 NA 
HETATM   17  C   UNL     1      -7.974  14.611  67.515  1.00  0.00    -0.190 A  
ENDBRANCH  12  13
ENDBRANCH   2  12
TORSDOF 2
ENDMDL
MODEL      126
REMARK 921   NORMALIZED FREE ENERGY PREDICTED BY IDOCK:   -3.12 KCAL/MOL
REMARK 922        TOTAL FREE ENERGY PREDICTED BY IDOCK:   -3.79 KCAL/MOL
REMARK 923 INTER-LIGAND FREE ENERGY PREDICTED BY IDOCK:   -3.95 KCAL/MOL
REMARK 924 INTRA-LIGAND FREE ENERGY PREDICTED BY IDOCK:    0.16 KCAL/MOL
REMARK 927      BINDING AFFINITY PREDICTED BY RF-SCORE:    0.00 PKD
ROOT
HETATM    1  O   UNL     1      -9.153   8.922  71.902  1.00  0.00    -0.331 OA 
HETATM    2  C   UNL     1     -10.071   8.285  70.956  1.00  0.00    -0.191 C  
HETATM    3  H   UNL     1      -9.655   9.538  72.422  1.00  0.00     0.000 HD 
HETATM    4  O   UNL     1     -11.386   7.947  73.312  1.00  0.00    -0.312 OA 
HETATM    5  P   UNL     1     -10.711   9.464  69.710  1.00  0.00    -0.226 P  
HETATM    6  P   UNL     1     -11.378   7.393  71.815  1.00  0.00    -0.277 P  
HETATM    7  O   UNL     1      -9.201  10.156  69.725  1.00  0.00    -0.208 OA 
HETATM    8  O   UNL     1     -11.261  10.412  70.940  1.00  0.00    -0.311 OA 
HETATM    9  O   UNL     1     -10.849   5.896  72.032  1.00  0.00    -0.233 OA 
HETATM   10  O   UNL     1     -12.728   7.394  71.207  1.00  0.00    -0.349 OA 
HETATM   11  O   UNL     1     -11.252  10.460  68.656  1.00  0.00    -0.256 OA 
ENDROOT
BRANCH   2  12
HETATM   12  C   UNL     1      -9.247   7.277  70.105  1.00  0.00    -0.152 C  
BRANCH  12  13
HETATM   13  N   UNL     1      -9.714   6.923  68.772  1.00  0.00    -0.137 NA 
HETATM   14  C   UNL     1      -9.014   7.247  67.628  1.00  0.00    -0.126 A  
HETATM   15  C   UNL     1      -9.791   6.816  66.581  1.00  0.00    -0.152 A  
HETATM   16  N   UNL     1     -10.930   6.232  67.050  1.00  0.00    -0.375 NA 
HETATM   17  C   UNL     1     -10.869   6.329  68.355  1.00  0.00    -0.319 A  
ENDBRANCH  12  13
ENDBRANCH   2  12
TORSDOF 2
ENDMDL
MODEL      127
REMARK 921   NORMALIZED FREE ENERGY PREDICTED BY IDOCK:   -3.10 KCAL/MOL
REMARK 922        TOTAL FREE ENERGY PREDICTED BY IDOCK:   -3.77 KCAL/MOL
REMARK 923 INTER-LIGAND FREE ENERGY PREDICTED BY IDOCK:   -3.63 KCAL/MOL
REMARK 924 INTRA-LIGAND FREE ENERGY PREDICTED BY IDOCK:   -0.14 KCAL/MOL
REMARK 927      BINDING AFFINITY PREDICTED BY RF-SCORE:    0.00 PKD
ROOT
HETATM    1  O   UNL     1      -9.847  15.468  66.737  1.00  0.00    -0.231 OA 
HETATM    2  C   UNL     1      -9.303  15.308  68.087  1.00  0.00    -0.198 C  
HETATM    3  H   UNL     1      -9.665  16.357  66.456  1.00  0.00     0.000 HD 
HETATM    4  O   UNL     1      -7.169  16.337  66.752  1.00  0.00    -0.214 OA 
HETATM    5  P   UNL     1     -10.192  16.328  69.319  1.00  0.00    -0.265 P  
HETATM    6  P   UNL     1      -7.521  15.575  68.109  1.00  0.00    -0.130 P  
HETATM    7  O   UNL     1     -11.578  15.978  68.472  1.00  0.00    -0.381 OA 
HETATM    8  O   UNL     1      -9.858  17.658  68.407  1.00  0.00    -0.298 OA 
HETATM    9  O   UNL     1      -6.839  14.146  67.859  1.00  0.00    -0.130 OA 
HETATM   10  O   UNL     1      -6.939  16.239  69.296  1.00  0.00    -0.199 OA 
HETATM   11  O   UNL     1     -10.945  17.191  70.361  1.00  0.00     0.166 OA 
ENDROOT
BRANCH   2  12
HETATM   12  C   UNL     1      -9.600  13.851  68.547  1.00  0.00    -0.185 C  
BRANCH  12  13
HETATM   13  N   UNL     1     -10.393  12.983  67.689  1.00  0.00    -0.220 NA 
HETATM   14  C   UNL     1      -9.835  12.211  66.692  1.00  0.00    -0.211 A  
HETATM   15  C   UNL     1     -10.889  11.592  66.065  1.00  0.00    -0.289 A  
HETATM   16  N   UNL     1     -12.063  11.952  66.656  1.00  0.00    -0.485 NA 
HETATM   17  C   UNL     1     -11.741  12.796  67.604  1.00  0.00    -0.367 A  
ENDBRANCH  12  13
ENDBRANCH   2  12
TORSDOF 2
ENDMDL
MODEL      128
REMARK 921   NORMALIZED FREE ENERGY PREDICTED BY IDOCK:   -3.09 KCAL/MOL
REMARK 922        TOTAL FREE ENERGY PREDICTED BY IDOCK:   -3.75 KCAL/MOL
REMARK 923 INTER-LIGAND FREE ENERGY PREDICTED BY IDOCK:   -3.44 KCAL/MOL
REMARK 924 INTRA-LIGAND FREE ENERGY PREDICTED BY IDOCK:   -0.32 KCAL/MOL
REMARK 927      BINDING AFFINITY PREDICTED BY RF-SCORE:    0.00 PKD
ROOT
HETATM    1  O   UNL     1      -9.455   9.659  71.241  1.00  0.00    -0.310 OA 
HETATM    2  C   UNL     1      -9.971   8.303  71.048  1.00  0.00    -0.187 C  
HETATM    3  H   UNL     1     -10.035  10.257  70.784  1.00  0.00     0.000 HD 
HETATM    4  O   UNL     1     -12.189   9.619  71.912  1.00  0.00    -0.376 OA 
HETATM    5  P   UNL     1      -9.851   7.757  69.305  1.00  0.00    -0.180 P  
HETATM    6  P   UNL     1     -11.633   8.135  71.723  1.00  0.00    -0.340 P  
HETATM    7  O   UNL     1      -8.405   8.572  69.246  1.00  0.00    -0.116 OA 
HETATM    8  O   UNL     1     -10.724   9.083  68.865  1.00  0.00    -0.205 OA 
HETATM    9  O   UNL     1     -11.466   7.661  73.245  1.00  0.00    -0.263 OA 
HETATM   10  O   UNL     1     -12.586   7.264  70.999  1.00  0.00    -0.328 OA 
HETATM   11  O   UNL     1      -9.749   7.294  67.831  1.00  0.00    -0.137 OA 
ENDROOT
BRANCH   2  12
HETATM   12  C   UNL     1      -9.022   7.325  71.796  1.00  0.00    -0.127 C  
BRANCH  12  13
HETATM   13  N   UNL     1      -8.025   7.861  72.711  1.00  0.00    -0.121 NA 
HETATM   14  C   UNL     1      -6.708   8.054  72.347  1.00  0.00    -0.077 A  
HETATM   15  C   UNL     1      -6.071   8.501  73.479  1.00  0.00    -0.118 A  
HETATM   16  N   UNL     1      -6.956   8.597  74.510  1.00  0.00    -0.300 NA 
HETATM   17  C   UNL     1      -8.105   8.189  74.033  1.00  0.00    -0.253 A  
ENDBRANCH  12  13
ENDBRANCH   2  12
TORSDOF 2
ENDMDL
MODEL      129
REMARK 921   NORMALIZED FREE ENERGY PREDICTED BY IDOCK:   -3.08 KCAL/MOL
REMARK 922        TOTAL FREE ENERGY PREDICTED BY IDOCK:   -3.74 KCAL/MOL
REMARK 923 INTER-LIGAND FREE ENERGY PREDICTED BY IDOCK:   -3.50 KCAL/MOL
REMARK 924 INTRA-LIGAND FREE ENERGY PREDICTED BY IDOCK:   -0.24 KCAL/MOL
REMARK 927      BINDING AFFINITY PREDICTED BY RF-SCORE:    0.00 PKD
ROOT
HETATM    1  O   UNL     1     -10.863   8.090  68.650  1.00  0.00    -0.405 OA 
HETATM    2  C   UNL     1     -10.001   7.691  69.764  1.00  0.00    -0.184 C  
HETATM    3  H   UNL     1     -11.355   8.854  68.925  1.00  0.00     0.000 HD 
HETATM    4  O   UNL     1      -9.424  10.339  69.544  1.00  0.00    -0.214 OA 
HETATM    5  P   UNL     1     -10.960   7.078  71.198  1.00  0.00    -0.266 P  
HETATM    6  P   UNL     1      -8.847   9.004  70.201  1.00  0.00    -0.221 P  
HETATM    7  O   UNL     1     -11.991   6.386  70.095  1.00  0.00    -0.354 OA 
HETATM    8  O   UNL     1     -11.783   8.505  71.213  1.00  0.00    -0.271 OA 
HETATM    9  O   UNL     1      -7.525   8.763  69.328  1.00  0.00    -0.075 OA 
HETATM   10  O   UNL     1      -8.513   9.179  71.632  1.00  0.00    -0.344 OA 
HETATM   11  O   UNL     1     -11.771   6.560  72.410  1.00  0.00    -0.281 OA 
ENDROOT
BRANCH   2  12
HETATM   12  C   UNL     1      -9.194   6.440  69.313  1.00  0.00    -0.135 C  
BRANCH  12  13
HETATM   13  N   UNL     1      -9.349   5.946  67.953  1.00  0.00    -0.108 NA 
HETATM   14  C   UNL     1      -8.545   6.363  66.913  1.00  0.00    -0.110 A  
HETATM   15  C   UNL     1      -9.033   5.739  65.791  1.00  0.00    -0.135 A  
HETATM   16  N   UNL     1     -10.096   4.950  66.116  1.00  0.00    -0.230 NA 
HETATM   17  C   UNL     1     -10.276   5.109  67.404  1.00  0.00    -0.172 A  
ENDBRANCH  12  13
ENDBRANCH   2  12
TORSDOF 2
ENDMDL
MODEL      130
REMARK 921   NORMALIZED FREE ENERGY PREDICTED BY IDOCK:   -3.08 KCAL/MOL
REMARK 922        TOTAL FREE ENERGY PREDICTED BY IDOCK:   -3.74 KCAL/MOL
REMARK 923 INTER-LIGAND FREE ENERGY PREDICTED BY IDOCK:   -3.85 KCAL/MOL
REMARK 924 INTRA-LIGAND FREE ENERGY PREDICTED BY IDOCK:    0.11 KCAL/MOL
REMARK 927      BINDING AFFINITY PREDICTED BY RF-SCORE:    0.00 PKD
ROOT
HETATM    1  O   UNL     1      -9.561   8.006  69.918  1.00  0.00    -0.170 OA 
HETATM    2  C   UNL     1     -10.287   7.948  71.187  1.00  0.00    -0.200 C  
HETATM    3  H   UNL     1      -9.100   7.182  69.810  1.00  0.00     0.000 HD 
HETATM    4  O   UNL     1     -11.067   5.629  69.999  1.00  0.00    -0.310 OA 
HETATM    5  P   UNL     1      -9.160   7.904  72.629  1.00  0.00    -0.250 P  
HETATM    6  P   UNL     1     -11.486   6.603  71.192  1.00  0.00    -0.347 P  
HETATM    7  O   UNL     1      -8.188   8.953  71.784  1.00  0.00    -0.318 OA 
HETATM    8  O   UNL     1      -8.442   6.570  71.984  1.00  0.00    -0.115 OA 
HETATM    9  O   UNL     1     -12.862   7.211  70.641  1.00  0.00    -0.149 OA 
HETATM   10  O   UNL     1     -11.700   5.876  72.464  1.00  0.00    -0.303 OA 
HETATM   11  O   UNL     1      -8.208   7.868  73.849  1.00  0.00    -0.186 OA 
ENDROOT
BRANCH   2  12
HETATM   12  C   UNL     1     -11.041   9.296  71.363  1.00  0.00    -0.367 C  
BRANCH  12  13
HETATM   13  N   UNL     1     -11.040  10.260  70.272  1.00  0.00    -0.302 NA 
HETATM   14  C   UNL     1     -12.201  10.724  69.688  1.00  0.00    -0.254 A  
HETATM   15  C   UNL     1     -11.799  11.550  68.667  1.00  0.00    -0.318 A  
HETATM   16  N   UNL     1     -10.439  11.612  68.620  1.00  0.00    -0.209 NA 
HETATM   17  C   UNL     1     -10.013  10.818  69.570  1.00  0.00    -0.054 A  
ENDBRANCH  12  13
ENDBRANCH   2  12
TORSDOF 2
ENDMDL
MODEL      131
REMARK 921   NORMALIZED FREE ENERGY PREDICTED BY IDOCK:   -3.05 KCAL/MOL
REMARK 922        TOTAL FREE ENERGY PREDICTED BY IDOCK:   -3.72 KCAL/MOL
REMARK 923 INTER-LIGAND FREE ENERGY PREDICTED BY IDOCK:   -3.47 KCAL/MOL
REMARK 924 INTRA-LIGAND FREE ENERGY PREDICTED BY IDOCK:   -0.25 KCAL/MOL
REMARK 927      BINDING AFFINITY PREDICTED BY RF-SCORE:    0.00 PKD
ROOT
HETATM    1  O   UNL     1      -8.612  12.071  65.939  1.00  0.00    -0.392 OA 
HETATM    2  C   UNL     1      -9.167  12.592  67.190  1.00  0.00    -0.205 C  
HETATM    3  H   UNL     1      -8.292  12.810  65.435  1.00  0.00     0.000 HD 
HETATM    4  O   UNL     1      -6.715  13.766  67.143  1.00  0.00    -0.163 OA 
HETATM    5  P   UNL     1     -10.671  13.599  66.916  1.00  0.00    -0.277 P  
HETATM    6  P   UNL     1      -7.911  13.453  68.152  1.00  0.00    -0.168 P  
HETATM    7  O   UNL     1     -11.066  12.516  65.720  1.00  0.00    -0.289 OA 
HETATM    8  O   UNL     1      -9.803  14.555  65.894  1.00  0.00    -0.305 OA 
HETATM    9  O   UNL     1      -7.239  12.361  69.114  1.00  0.00    -0.053 OA 
HETATM   10  O   UNL     1      -8.330  14.648  68.918  1.00  0.00    -0.162 OA 
HETATM   11  O   UNL     1     -11.943  14.450  66.685  1.00  0.00    -0.407 OA 
ENDROOT
BRANCH   2  12
HETATM   12  C   UNL     1      -9.692  11.381  68.014  1.00  0.00    -0.186 C  
BRANCH  12  13
HETATM   13  N   UNL     1      -9.490  10.033  67.505  1.00  0.00    -0.147 NA 
HETATM   14  C   UNL     1      -8.318   9.331  67.700  1.00  0.00    -0.116 A  
HETATM   15  C   UNL     1      -8.477   8.145  67.026  1.00  0.00    -0.120 A  
HETATM   16  N   UNL     1      -9.706   8.099  66.440  1.00  0.00    -0.226 NA 
HETATM   17  C   UNL     1     -10.279   9.243  66.722  1.00  0.00    -0.255 A  
ENDBRANCH  12  13
ENDBRANCH   2  12
TORSDOF 2
ENDMDL
MODEL      132
REMARK 921   NORMALIZED FREE ENERGY PREDICTED BY IDOCK:   -3.04 KCAL/MOL
REMARK 922        TOTAL FREE ENERGY PREDICTED BY IDOCK:   -3.70 KCAL/MOL
REMARK 923 INTER-LIGAND FREE ENERGY PREDICTED BY IDOCK:   -3.91 KCAL/MOL
REMARK 924 INTRA-LIGAND FREE ENERGY PREDICTED BY IDOCK:    0.21 KCAL/MOL
REMARK 927      BINDING AFFINITY PREDICTED BY RF-SCORE:    0.00 PKD
ROOT
HETATM    1  O   UNL     1      -8.306   8.341  70.536  1.00  0.00    -0.115 OA 
HETATM    2  C   UNL     1      -9.606   7.722  70.799  1.00  0.00    -0.165 C  
HETATM    3  H   UNL     1      -7.638   7.678  70.668  1.00  0.00     0.000 HD 
HETATM    4  O   UNL     1      -8.499   5.959  69.050  1.00  0.00    -0.105 OA 
HETATM    5  P   UNL     1      -9.812   7.260  72.558  1.00  0.00    -0.180 P  
HETATM    6  P   UNL     1      -9.915   6.350  69.673  1.00  0.00    -0.176 P  
HETATM    7  O   UNL     1      -8.986   8.655  72.925  1.00  0.00    -0.343 OA 
HETATM    8  O   UNL     1      -8.435   6.363  72.448  1.00  0.00    -0.120 OA 
HETATM    9  O   UNL     1     -10.667   6.963  68.397  1.00  0.00    -0.215 OA 
HETATM   10  O   UNL     1     -10.642   5.175  70.202  1.00  0.00    -0.272 OA 
HETATM   11  O   UNL     1      -9.987   6.871  74.046  1.00  0.00    -0.285 OA 
ENDROOT
BRANCH   2  12
HETATM   12  C   UNL     1     -10.699   8.807  70.583  1.00  0.00    -0.225 C  
BRANCH  12  13
HETATM   13  N   UNL     1     -12.013   8.624  71.183  1.00  0.00    -0.290 NA 
HETATM   14  C   UNL     1     -12.578   9.550  72.034  1.00  0.00    -0.376 A  
HETATM   15  C   UNL     1     -13.770   9.002  72.443  1.00  0.00    -0.479 A  
HETATM   16  N   UNL     1     -13.951   7.784  71.861  1.00  0.00    -0.346 NA 
HETATM   17  C   UNL     1     -12.881   7.573  71.134  1.00  0.00    -0.222 A  
ENDBRANCH  12  13
ENDBRANCH   2  12
TORSDOF 2
ENDMDL
MODEL      133
REMARK 921   NORMALIZED FREE ENERGY PREDICTED BY IDOCK:   -3.03 KCAL/MOL
REMARK 922        TOTAL FREE ENERGY PREDICTED BY IDOCK:   -3.69 KCAL/MOL
REMARK 923 INTER-LIGAND FREE ENERGY PREDICTED BY IDOCK:   -3.37 KCAL/MOL
REMARK 924 INTRA-LIGAND FREE ENERGY PREDICTED BY IDOCK:   -0.32 KCAL/MOL
REMARK 927      BINDING AFFINITY PREDICTED BY RF-SCORE:    0.00 PKD
ROOT
HETATM    1  O   UNL     1     -10.732   7.069  66.639  1.00  0.00    -0.513 OA 
HETATM    2  C   UNL     1      -9.550   7.100  67.502  1.00  0.00    -0.132 C  
HETATM    3  H   UNL     1     -11.152   6.225  66.755  1.00  0.00     0.000 HD 
HETATM    4  O   UNL     1     -11.485   6.316  69.244  1.00  0.00    -0.411 OA 
HETATM    5  P   UNL     1      -8.266   5.912  66.964  1.00  0.00    -0.104 P  
HETATM    6  P   UNL     1     -10.003   6.906  69.235  1.00  0.00    -0.167 P  
HETATM    7  O   UNL     1      -8.695   6.296  65.406  1.00  0.00    -0.134 OA 
HETATM    8  O   UNL     1      -9.383   4.707  67.074  1.00  0.00    -0.125 OA 
HETATM    9  O   UNL     1     -10.243   8.381  69.816  1.00  0.00    -0.197 OA 
HETATM   10  O   UNL     1      -9.085   6.138  70.105  1.00  0.00    -0.149 OA 
HETATM   11  O   UNL     1      -7.179   4.907  66.508  1.00  0.00    -0.074 OA 
ENDROOT
BRANCH   2  12
HETATM   12  C   UNL     1      -8.862   8.482  67.312  1.00  0.00    -0.130 C  
BRANCH  12  13
HETATM   13  N   UNL     1      -9.560   9.530  66.583  1.00  0.00    -0.174 NA 
HETATM   14  C   UNL     1      -9.335   9.782  65.246  1.00  0.00    -0.255 A  
HETATM   15  C   UNL     1     -10.114  10.871  64.936  1.00  0.00    -0.312 A  
HETATM   16  N   UNL     1     -10.811  11.278  66.034  1.00  0.00    -0.248 NA 
HETATM   17  C   UNL     1     -10.445  10.478  67.005  1.00  0.00    -0.249 A  
ENDBRANCH  12  13
ENDBRANCH   2  12
TORSDOF 2
ENDMDL
MODEL      134
REMARK 921   NORMALIZED FREE ENERGY PREDICTED BY IDOCK:   -3.02 KCAL/MOL
REMARK 922        TOTAL FREE ENERGY PREDICTED BY IDOCK:   -3.68 KCAL/MOL
REMARK 923 INTER-LIGAND FREE ENERGY PREDICTED BY IDOCK:   -3.37 KCAL/MOL
REMARK 924 INTRA-LIGAND FREE ENERGY PREDICTED BY IDOCK:   -0.31 KCAL/MOL
REMARK 927      BINDING AFFINITY PREDICTED BY RF-SCORE:    0.00 PKD
ROOT
HETATM    1  O   UNL     1     -10.692   8.285  67.951  1.00  0.00    -0.421 OA 
HETATM    2  C   UNL     1      -9.716   9.281  68.396  1.00  0.00    -0.154 C  
HETATM    3  H   UNL     1     -11.539   8.535  68.299  1.00  0.00     0.000 HD 
HETATM    4  O   UNL     1     -11.665  10.854  67.338  1.00  0.00    -0.510 OA 
HETATM    5  P   UNL     1      -9.457   9.238  70.208  1.00  0.00    -0.269 P  
HETATM    6  P   UNL     1     -10.136  10.924  67.787  1.00  0.00    -0.191 P  
HETATM    7  O   UNL     1      -9.607   7.587  70.097  1.00  0.00    -0.168 OA 
HETATM    8  O   UNL     1     -11.076   9.465  70.410  1.00  0.00    -0.237 OA 
HETATM    9  O   UNL     1      -9.396  11.094  66.375  1.00  0.00    -0.178 OA 
HETATM   10  O   UNL     1      -9.860  12.078  68.671  1.00  0.00    -0.194 OA 
HETATM   11  O   UNL     1      -9.237   9.201  71.740  1.00  0.00    -0.338 OA 
ENDROOT
BRANCH   2  12
HETATM   12  C   UNL     1      -8.328   8.872  67.826  1.00  0.00    -0.110 C  
BRANCH  12  13
HETATM   13  N   UNL     1      -8.251   7.803  66.841  1.00  0.00    -0.115 NA 
HETATM   14  C   UNL     1      -7.995   6.491  67.185  1.00  0.00    -0.112 A  
HETATM   15  C   UNL     1      -7.931   5.801  65.999  1.00  0.00    -0.103 A  
HETATM   16  N   UNL     1      -8.151   6.645  64.952  1.00  0.00    -0.127 NA 
HETATM   17  C   UNL     1      -8.315   7.833  65.479  1.00  0.00    -0.146 A  
ENDBRANCH  12  13
ENDBRANCH   2  12
TORSDOF 2
ENDMDL
MODEL      135
REMARK 921   NORMALIZED FREE ENERGY PREDICTED BY IDOCK:   -3.02 KCAL/MOL
REMARK 922        TOTAL FREE ENERGY PREDICTED BY IDOCK:   -3.68 KCAL/MOL
REMARK 923 INTER-LIGAND FREE ENERGY PREDICTED BY IDOCK:   -3.57 KCAL/MOL
REMARK 924 INTRA-LIGAND FREE ENERGY PREDICTED BY IDOCK:   -0.11 KCAL/MOL
REMARK 927      BINDING AFFINITY PREDICTED BY RF-SCORE:    0.00 PKD
ROOT
HETATM    1  O   UNL     1     -11.239   9.474  67.663  1.00  0.00    -0.472 OA 
HETATM    2  C   UNL     1      -9.856   9.148  68.017  1.00  0.00    -0.168 C  
HETATM    3  H   UNL     1     -11.795   9.189  68.378  1.00  0.00     0.000 HD 
HETATM    4  O   UNL     1     -10.696  10.475  70.237  1.00  0.00    -0.253 OA 
HETATM    5  P   UNL     1      -9.565   7.342  68.085  1.00  0.00    -0.147 P  
HETATM    6  P   UNL     1      -9.352   9.998  69.523  1.00  0.00    -0.190 P  
HETATM    7  O   UNL     1     -10.591   7.221  66.784  1.00  0.00    -0.298 OA 
HETATM    8  O   UNL     1     -10.788   7.220  69.181  1.00  0.00    -0.208 OA 
HETATM    9  O   UNL     1      -8.715  11.397  69.071  1.00  0.00    -0.058 OA 
HETATM   10  O   UNL     1      -8.447   9.279  70.449  1.00  0.00    -0.167 OA 
HETATM   11  O   UNL     1      -9.317   5.815  68.142  1.00  0.00    -0.109 OA 
ENDROOT
BRANCH   2  12
HETATM   12  C   UNL     1      -8.945   9.614  66.846  1.00  0.00    -0.134 C  
BRANCH  12  13
HETATM   13  N   UNL     1      -9.495  10.490  65.822  1.00  0.00    -0.190 NA 
HETATM   14  C   UNL     1      -9.775  11.821  66.052  1.00  0.00    -0.232 A  
HETATM   15  C   UNL     1     -10.336  12.290  64.890  1.00  0.00    -0.290 A  
HETATM   16  N   UNL     1     -10.396  11.295  63.961  1.00  0.00    -0.339 NA 
HETATM   17  C   UNL     1      -9.910  10.230  64.548  1.00  0.00    -0.315 A  
ENDBRANCH  12  13
ENDBRANCH   2  12
TORSDOF 2
ENDMDL
MODEL      136
REMARK 921   NORMALIZED FREE ENERGY PREDICTED BY IDOCK:   -3.01 KCAL/MOL
REMARK 922        TOTAL FREE ENERGY PREDICTED BY IDOCK:   -3.67 KCAL/MOL
REMARK 923 INTER-LIGAND FREE ENERGY PREDICTED BY IDOCK:   -3.79 KCAL/MOL
REMARK 924 INTRA-LIGAND FREE ENERGY PREDICTED BY IDOCK:    0.12 KCAL/MOL
REMARK 927      BINDING AFFINITY PREDICTED BY RF-SCORE:    0.00 PKD
ROOT
HETATM    1  O   UNL     1     -11.031   8.542  67.339  1.00  0.00    -0.470 OA 
HETATM    2  C   UNL     1     -10.256   9.726  67.718  1.00  0.00    -0.208 C  
HETATM    3  H   UNL     1     -10.479   7.781  67.473  1.00  0.00     0.000 HD 
HETATM    4  O   UNL     1      -9.940   8.137  69.902  1.00  0.00    -0.185 OA 
HETATM    5  P   UNL     1      -8.846  10.023  66.590  1.00  0.00    -0.132 P  
HETATM    6  P   UNL     1      -9.766   9.657  69.451  1.00  0.00    -0.221 P  
HETATM    7  O   UNL     1      -9.842   9.512  65.361  1.00  0.00    -0.302 OA 
HETATM    8  O   UNL     1      -8.310   8.500  66.914  1.00  0.00    -0.108 OA 
HETATM    9  O   UNL     1     -10.930  10.374  70.287  1.00  0.00    -0.294 OA 
HETATM   10  O   UNL     1      -8.440  10.205  69.813  1.00  0.00    -0.177 OA 
HETATM   11  O   UNL     1      -7.655  10.275  65.634  1.00  0.00    -0.137 OA 
ENDROOT
BRANCH   2  12
HETATM   12  C   UNL     1     -11.160  10.973  67.499  1.00  0.00    -0.302 C  
BRANCH  12  13
HETATM   13  N   UNL     1     -10.541  12.260  67.223  1.00  0.00    -0.221 NA 
HETATM   14  C   UNL     1     -10.038  13.073  68.218  1.00  0.00    -0.239 A  
HETATM   15  C   UNL     1      -9.605  14.213  67.585  1.00  0.00    -0.216 A  
HETATM   16  N   UNL     1      -9.818  14.114  66.243  1.00  0.00    -0.296 NA 
HETATM   17  C   UNL     1     -10.395  12.953  66.057  1.00  0.00    -0.283 A  
ENDBRANCH  12  13
ENDBRANCH   2  12
TORSDOF 2
ENDMDL
MODEL      137
REMARK 921   NORMALIZED FREE ENERGY PREDICTED BY IDOCK:   -2.99 KCAL/MOL
REMARK 922        TOTAL FREE ENERGY PREDICTED BY IDOCK:   -3.65 KCAL/MOL
REMARK 923 INTER-LIGAND FREE ENERGY PREDICTED BY IDOCK:   -3.57 KCAL/MOL
REMARK 924 INTRA-LIGAND FREE ENERGY PREDICTED BY IDOCK:   -0.08 KCAL/MOL
REMARK 927      BINDING AFFINITY PREDICTED BY RF-SCORE:    0.00 PKD
ROOT
HETATM    1  O   UNL     1     -11.182   7.592  70.093  1.00  0.00    -0.324 OA 
HETATM    2  C   UNL     1      -9.788   7.471  69.664  1.00  0.00    -0.180 C  
HETATM    3  H   UNL     1     -11.417   6.788  70.542  1.00  0.00     0.000 HD 
HETATM    4  O   UNL     1      -9.616   6.801  72.294  1.00  0.00    -0.147 OA 
HETATM    5  P   UNL     1      -9.567   6.191  68.376  1.00  0.00    -0.123 P  
HETATM    6  P   UNL     1      -8.689   7.246  71.074  1.00  0.00    -0.140 P  
HETATM    7  O   UNL     1     -11.032   6.683  67.766  1.00  0.00    -0.278 OA 
HETATM    8  O   UNL     1     -10.253   5.095  69.396  1.00  0.00    -0.222 OA 
HETATM    9  O   UNL     1      -8.230   8.710  71.539  1.00  0.00    -0.145 OA 
HETATM   10  O   UNL     1      -7.519   6.356  70.900  1.00  0.00    -0.084 OA 
HETATM   11  O   UNL     1      -9.379   5.108  67.285  1.00  0.00    -0.116 OA 
ENDROOT
BRANCH   2  12
HETATM   12  C   UNL     1      -9.404   8.788  68.930  1.00  0.00    -0.145 C  
BRANCH  12  13
HETATM   13  N   UNL     1     -10.413   9.820  68.744  1.00  0.00    -0.210 NA 
HETATM   14  C   UNL     1     -10.905  10.576  69.787  1.00  0.00    -0.281 A  
HETATM   15  C   UNL     1     -11.875  11.381  69.239  1.00  0.00    -0.349 A  
HETATM   16  N   UNL     1     -11.978  11.147  67.901  1.00  0.00    -0.620 NA 
HETATM   17  C   UNL     1     -11.114  10.199  67.637  1.00  0.00    -0.206 A  
ENDBRANCH  12  13
ENDBRANCH   2  12
TORSDOF 2
ENDMDL
MODEL      138
REMARK 921   NORMALIZED FREE ENERGY PREDICTED BY IDOCK:   -2.98 KCAL/MOL
REMARK 922        TOTAL FREE ENERGY PREDICTED BY IDOCK:   -3.64 KCAL/MOL
REMARK 923 INTER-LIGAND FREE ENERGY PREDICTED BY IDOCK:   -3.33 KCAL/MOL
REMARK 924 INTRA-LIGAND FREE ENERGY PREDICTED BY IDOCK:   -0.31 KCAL/MOL
REMARK 927      BINDING AFFINITY PREDICTED BY RF-SCORE:    0.00 PKD
ROOT
HETATM    1  O   UNL     1      -8.854   7.521  69.101  1.00  0.00    -0.136 OA 
HETATM    2  C   UNL     1      -8.879   8.954  68.802  1.00  0.00    -0.137 C  
HETATM    3  H   UNL     1      -8.220   7.116  68.521  1.00  0.00     0.000 HD 
HETATM    4  O   UNL     1      -6.217   8.506  69.133  1.00  0.00    -0.041 OA 
HETATM    5  P   UNL     1      -9.548   9.303  67.134  1.00  0.00    -0.182 P  
HETATM    6  P   UNL     1      -7.266   9.707  69.082  1.00  0.00    -0.076 P  
HETATM    7  O   UNL     1     -10.613   8.056  67.402  1.00  0.00    -0.282 OA 
HETATM    8  O   UNL     1      -8.398   8.310  66.501  1.00  0.00    -0.106 OA 
HETATM    9  O   UNL     1      -7.251  10.209  70.604  1.00  0.00    -0.317 OA 
HETATM   10  O   UNL     1      -6.842  10.788  68.164  1.00  0.00    -0.066 OA 
HETATM   11  O   UNL     1     -10.116   9.599  65.725  1.00  0.00    -0.290 OA 
ENDROOT
BRANCH   2  12
HETATM   12  C   UNL     1      -9.917   9.617  69.751  1.00  0.00    -0.227 C  
BRANCH  12  13
HETATM   13  N   UNL     1     -10.443   8.855  70.874  1.00  0.00    -0.218 NA 
HETATM   14  C   UNL     1     -11.710   8.310  70.875  1.00  0.00    -0.239 A  
HETATM   15  C   UNL     1     -11.867   7.735  72.113  1.00  0.00    -0.324 A  
HETATM   16  N   UNL     1     -10.737   7.902  72.856  1.00  0.00    -0.368 NA 
HETATM   17  C   UNL     1      -9.915   8.591  72.104  1.00  0.00    -0.317 A  
ENDBRANCH  12  13
ENDBRANCH   2  12
TORSDOF 2
ENDMDL
MODEL      139
REMARK 921   NORMALIZED FREE ENERGY PREDICTED BY IDOCK:   -2.96 KCAL/MOL
REMARK 922        TOTAL FREE ENERGY PREDICTED BY IDOCK:   -3.62 KCAL/MOL
REMARK 923 INTER-LIGAND FREE ENERGY PREDICTED BY IDOCK:   -3.32 KCAL/MOL
REMARK 924 INTRA-LIGAND FREE ENERGY PREDICTED BY IDOCK:   -0.30 KCAL/MOL
REMARK 927      BINDING AFFINITY PREDICTED BY RF-SCORE:    0.00 PKD
ROOT
HETATM    1  O   UNL     1      -8.667   8.337  68.546  1.00  0.00    -0.132 OA 
HETATM    2  C   UNL     1      -9.592   7.288  68.114  1.00  0.00    -0.140 C  
HETATM    3  H   UNL     1      -8.073   7.955  69.181  1.00  0.00     0.000 HD 
HETATM    4  O   UNL     1      -7.183   6.074  67.771  1.00  0.00    -0.072 OA 
HETATM    5  P   UNL     1     -10.706   6.747  69.461  1.00  0.00    -0.289 P  
HETATM    6  P   UNL     1      -8.711   5.920  67.340  1.00  0.00    -0.105 P  
HETATM    7  O   UNL     1     -10.744   8.337  69.942  1.00  0.00    -0.238 OA 
HETATM    8  O   UNL     1      -9.380   6.405  70.375  1.00  0.00    -0.160 OA 
HETATM    9  O   UNL     1      -8.636   6.248  65.773  1.00  0.00    -0.147 OA 
HETATM   10  O   UNL     1      -9.226   4.552  67.570  1.00  0.00    -0.122 OA 
HETATM   11  O   UNL     1     -11.650   6.291  70.600  1.00  0.00    -0.353 OA 
ENDROOT
BRANCH   2  12
HETATM   12  C   UNL     1     -10.564   7.914  67.073  1.00  0.00    -0.311 C  
BRANCH  12  13
HETATM   13  N   UNL     1     -10.284   9.242  66.546  1.00  0.00    -0.266 NA 
HETATM   14  C   UNL     1     -10.805  10.390  67.105  1.00  0.00    -0.238 A  
HETATM   15  C   UNL     1     -10.380  11.421  66.303  1.00  0.00    -0.243 A  
HETATM   16  N   UNL     1      -9.610  10.939  65.287  1.00  0.00    -0.215 NA 
HETATM   17  C   UNL     1      -9.588   9.639  65.442  1.00  0.00    -0.291 A  
ENDBRANCH  12  13
ENDBRANCH   2  12
TORSDOF 2
ENDMDL
MODEL      140
REMARK 921   NORMALIZED FREE ENERGY PREDICTED BY IDOCK:   -2.94 KCAL/MOL
REMARK 922        TOTAL FREE ENERGY PREDICTED BY IDOCK:   -3.59 KCAL/MOL
REMARK 923 INTER-LIGAND FREE ENERGY PREDICTED BY IDOCK:   -3.83 KCAL/MOL
REMARK 924 INTRA-LIGAND FREE ENERGY PREDICTED BY IDOCK:    0.24 KCAL/MOL
REMARK 927      BINDING AFFINITY PREDICTED BY RF-SCORE:    0.00 PKD
ROOT
HETATM    1  O   UNL     1      -8.609  11.236  69.155  1.00  0.00    -0.366 OA 
HETATM    2  C   UNL     1      -9.474  10.055  69.151  1.00  0.00    -0.207 C  
HETATM    3  H   UNL     1      -7.995  11.146  68.436  1.00  0.00     0.000 HD 
HETATM    4  O   UNL     1      -9.653  10.876  66.565  1.00  0.00    -0.186 OA 
HETATM    5  P   UNL     1      -8.560   8.524  69.566  1.00  0.00    -0.134 P  
HETATM    6  P   UNL     1     -10.397   9.926  67.609  1.00  0.00    -0.258 P  
HETATM    7  O   UNL     1      -7.693   9.444  70.643  1.00  0.00    -0.143 OA 
HETATM    8  O   UNL     1      -7.531   8.843  68.320  1.00  0.00    -0.085 OA 
HETATM    9  O   UNL     1     -11.776  10.712  67.830  1.00  0.00    -0.506 OA 
HETATM   10  O   UNL     1     -10.641   8.572  67.064  1.00  0.00    -0.306 OA 
HETATM   11  O   UNL     1      -7.788   7.229  69.917  1.00  0.00    -0.107 OA 
ENDROOT
BRANCH   2  12
HETATM   12  C   UNL     1     -10.480  10.201  70.329  1.00  0.00    -0.224 C  
BRANCH  12  13
HETATM   13  N   UNL     1     -10.921   9.011  71.040  1.00  0.00    -0.260 NA 
HETATM   14  C   UNL     1     -11.762   8.075  70.474  1.00  0.00    -0.071 A  
HETATM   15  C   UNL     1     -12.004   7.148  71.459  1.00  0.00    -0.326 A  
HETATM   16  N   UNL     1     -11.332   7.483  72.596  1.00  0.00    -0.338 NA 
HETATM   17  C   UNL     1     -10.714   8.607  72.327  1.00  0.00    -0.313 A  
ENDBRANCH  12  13
ENDBRANCH   2  12
TORSDOF 2
ENDMDL
MODEL      141
REMARK 921   NORMALIZED FREE ENERGY PREDICTED BY IDOCK:   -2.93 KCAL/MOL
REMARK 922        TOTAL FREE ENERGY PREDICTED BY IDOCK:   -3.58 KCAL/MOL
REMARK 923 INTER-LIGAND FREE ENERGY PREDICTED BY IDOCK:   -3.31 KCAL/MOL
REMARK 924 INTRA-LIGAND FREE ENERGY PREDICTED BY IDOCK:   -0.27 KCAL/MOL
REMARK 927      BINDING AFFINITY PREDICTED BY RF-SCORE:    0.00 PKD
ROOT
HETATM    1  O   UNL     1     -11.423   7.040  67.683  1.00  0.00    -0.525 OA 
HETATM    2  C   UNL     1     -10.001   6.941  68.018  1.00  0.00    -0.154 C  
HETATM    3  H   UNL     1     -11.524   6.791  66.772  1.00  0.00     0.000 HD 
HETATM    4  O   UNL     1     -10.473   4.511  66.892  1.00  0.00    -0.118 OA 
HETATM    5  P   UNL     1      -8.991   8.182  67.129  1.00  0.00    -0.147 P  
HETATM    6  P   UNL     1      -9.396   5.258  67.801  1.00  0.00    -0.129 P  
HETATM    7  O   UNL     1     -10.262   9.231  67.339  1.00  0.00    -0.209 OA 
HETATM    8  O   UNL     1      -9.586   7.598  65.708  1.00  0.00     0.101 OA 
HETATM    9  O   UNL     1      -9.594   4.513  69.207  1.00  0.00    -0.158 OA 
HETATM   10  O   UNL     1      -8.015   5.082  67.299  1.00  0.00    -0.098 OA 
HETATM   11  O   UNL     1      -8.137   9.232  66.378  1.00  0.00    -0.106 OA 
ENDROOT
BRANCH   2  12
HETATM   12  C   UNL     1      -9.837   7.348  69.510  1.00  0.00    -0.165 C  
BRANCH  12  13
HETATM   13  N   UNL     1     -11.024   7.609  70.311  1.00  0.00    -0.253 NA 
HETATM   14  C   UNL     1     -11.373   8.875  70.734  1.00  0.00    -0.278 A  
HETATM   15  C   UNL     1     -12.495   8.713  71.509  1.00  0.00    -0.323 A  
HETATM   16  N   UNL     1     -12.844   7.397  71.561  1.00  0.00    -0.365 NA 
HETATM   17  C   UNL     1     -11.941   6.760  70.859  1.00  0.00    -0.383 A  
ENDBRANCH  12  13
ENDBRANCH   2  12
TORSDOF 2
ENDMDL
MODEL      142
REMARK 921   NORMALIZED FREE ENERGY PREDICTED BY IDOCK:   -2.93 KCAL/MOL
REMARK 922        TOTAL FREE ENERGY PREDICTED BY IDOCK:   -3.58 KCAL/MOL
REMARK 923 INTER-LIGAND FREE ENERGY PREDICTED BY IDOCK:   -3.87 KCAL/MOL
REMARK 924 INTRA-LIGAND FREE ENERGY PREDICTED BY IDOCK:    0.29 KCAL/MOL
REMARK 927      BINDING AFFINITY PREDICTED BY RF-SCORE:    0.00 PKD
ROOT
HETATM    1  O   UNL     1      -9.224   6.410  71.306  1.00  0.00    -0.155 OA 
HETATM    2  C   UNL     1      -9.830   7.610  70.726  1.00  0.00    -0.177 C  
HETATM    3  H   UNL     1      -8.969   6.616  72.197  1.00  0.00     0.000 HD 
HETATM    4  O   UNL     1     -11.207   7.369  73.059  1.00  0.00    -0.336 OA 
HETATM    5  P   UNL     1      -8.618   8.965  70.514  1.00  0.00    -0.222 P  
HETATM    6  P   UNL     1     -11.291   8.115  71.651  1.00  0.00    -0.304 P  
HETATM    7  O   UNL     1      -7.515   7.791  70.106  1.00  0.00    -0.079 OA 
HETATM    8  O   UNL     1      -8.273   8.863  72.121  1.00  0.00    -0.373 OA 
HETATM    9  O   UNL     1     -12.542   7.376  70.973  1.00  0.00    -0.304 OA 
HETATM   10  O   UNL     1     -11.548   9.565  71.795  1.00  0.00    -0.385 OA 
HETATM   11  O   UNL     1      -7.592  10.111  70.333  1.00  0.00    -0.249 OA 
ENDROOT
BRANCH   2  12
HETATM   12  C   UNL     1     -10.248   7.271  69.267  1.00  0.00    -0.193 C  
BRANCH  12  13
HETATM   13  N   UNL     1     -10.309   8.338  68.279  1.00  0.00    -0.207 NA 
HETATM   14  C   UNL     1      -9.669   8.260  67.059  1.00  0.00    -0.211 A  
HETATM   15  C   UNL     1      -9.898   9.465  66.441  1.00  0.00    -0.269 A  
HETATM   16  N   UNL     1     -10.662  10.264  67.236  1.00  0.00    -0.269 NA 
HETATM   17  C   UNL     1     -10.874   9.578  68.332  1.00  0.00    -0.137 A  
ENDBRANCH  12  13
ENDBRANCH   2  12
TORSDOF 2
ENDMDL
MODEL      143
REMARK 921   NORMALIZED FREE ENERGY PREDICTED BY IDOCK:   -2.91 KCAL/MOL
REMARK 922        TOTAL FREE ENERGY PREDICTED BY IDOCK:   -3.56 KCAL/MOL
REMARK 923 INTER-LIGAND FREE ENERGY PREDICTED BY IDOCK:   -3.31 KCAL/MOL
REMARK 924 INTRA-LIGAND FREE ENERGY PREDICTED BY IDOCK:   -0.25 KCAL/MOL
REMARK 927      BINDING AFFINITY PREDICTED BY RF-SCORE:    0.00 PKD
ROOT
HETATM    1  O   UNL     1      -9.149   7.846  69.686  1.00  0.00    -0.151 OA 
HETATM    2  C   UNL     1     -10.052   6.710  69.493  1.00  0.00    -0.177 C  
HETATM    3  H   UNL     1      -8.759   7.762  70.548  1.00  0.00     0.000 HD 
HETATM    4  O   UNL     1      -7.765   5.469  70.284  1.00  0.00    -0.081 OA 
HETATM    5  P   UNL     1     -11.496   6.772  70.616  1.00  0.00    -0.377 P  
HETATM    6  P   UNL     1      -9.161   5.147  69.581  1.00  0.00    -0.127 P  
HETATM    7  O   UNL     1     -11.481   8.419  70.393  1.00  0.00    -0.234 OA 
HETATM    8  O   UNL     1     -10.457   6.841  71.892  1.00  0.00    -0.199 OA 
HETATM    9  O   UNL     1      -8.694   4.798  68.088  1.00  0.00    -0.101 OA 
HETATM   10  O   UNL     1      -9.852   3.995  70.202  1.00  0.00    -0.210 OA 
HETATM   11  O   UNL     1     -12.718   6.825  71.565  1.00  0.00    -0.355 OA 
ENDROOT
BRANCH   2  12
HETATM   12  C   UNL     1     -10.690   6.848  68.081  1.00  0.00    -0.205 C  
BRANCH  12  13
HETATM   13  N   UNL     1     -10.247   7.919  67.202  1.00  0.00    -0.260 NA 
HETATM   14  C   UNL     1      -9.189   7.776  66.328  1.00  0.00    -0.166 A  
HETATM   15  C   UNL     1      -9.031   9.002  65.730  1.00  0.00    -0.197 A  
HETATM   16  N   UNL     1      -9.962   9.879  66.201  1.00  0.00    -0.253 NA 
HETATM   17  C   UNL     1     -10.658   9.215  67.091  1.00  0.00    -0.216 A  
ENDBRANCH  12  13
ENDBRANCH   2  12
TORSDOF 2
ENDMDL
MODEL      144
REMARK 921   NORMALIZED FREE ENERGY PREDICTED BY IDOCK:   -2.91 KCAL/MOL
REMARK 922        TOTAL FREE ENERGY PREDICTED BY IDOCK:   -3.55 KCAL/MOL
REMARK 923 INTER-LIGAND FREE ENERGY PREDICTED BY IDOCK:   -3.70 KCAL/MOL
REMARK 924 INTRA-LIGAND FREE ENERGY PREDICTED BY IDOCK:    0.15 KCAL/MOL
REMARK 927      BINDING AFFINITY PREDICTED BY RF-SCORE:    0.00 PKD
ROOT
HETATM    1  O   UNL     1     -12.278   6.772  69.869  1.00  0.00    -0.634 OA 
HETATM    2  C   UNL     1     -11.027   7.342  70.374  1.00  0.00    -0.252 C  
HETATM    3  H   UNL     1     -12.627   6.199  70.541  1.00  0.00     0.000 HD 
HETATM    4  O   UNL     1     -12.737   7.860  72.424  1.00  0.00    -0.207 OA 
HETATM    5  P   UNL     1      -9.719   6.077  70.570  1.00  0.00    -0.182 P  
HETATM    6  P   UNL     1     -11.306   8.301  71.873  1.00  0.00    -0.363 P  
HETATM    7  O   UNL     1     -10.313   5.380  69.184  1.00  0.00    -0.225 OA 
HETATM    8  O   UNL     1     -10.736   5.225  71.546  1.00  0.00    -0.221 OA 
HETATM    9  O   UNL     1     -11.594   9.808  71.409  1.00  0.00    -0.364 OA 
HETATM   10  O   UNL     1     -10.262   8.260  72.921  1.00  0.00    -0.295 OA 
HETATM   11  O   UNL     1      -8.611   5.008  70.735  1.00  0.00    -0.117 OA 
ENDROOT
BRANCH   2  12
HETATM   12  C   UNL     1     -10.456   8.281  69.274  1.00  0.00    -0.210 C  
BRANCH  12  13
HETATM   13  N   UNL     1      -9.038   8.606  69.282  1.00  0.00    -0.148 NA 
HETATM   14  C   UNL     1      -8.508   9.602  70.077  1.00  0.00    -0.204 A  
HETATM   15  C   UNL     1      -7.171   9.657  69.762  1.00  0.00    -0.094 A  
HETATM   16  N   UNL     1      -6.872   8.724  68.816  1.00  0.00    -0.061 NA 
HETATM   17  C   UNL     1      -8.004   8.128  68.532  1.00  0.00    -0.126 A  
ENDBRANCH  12  13
ENDBRANCH   2  12
TORSDOF 2
ENDMDL
MODEL      145
REMARK 921   NORMALIZED FREE ENERGY PREDICTED BY IDOCK:   -2.89 KCAL/MOL
REMARK 922        TOTAL FREE ENERGY PREDICTED BY IDOCK:   -3.53 KCAL/MOL
REMARK 923 INTER-LIGAND FREE ENERGY PREDICTED BY IDOCK:   -3.22 KCAL/MOL
REMARK 924 INTRA-LIGAND FREE ENERGY PREDICTED BY IDOCK:   -0.32 KCAL/MOL
REMARK 927      BINDING AFFINITY PREDICTED BY RF-SCORE:    0.00 PKD
ROOT
HETATM    1  O   UNL     1      -8.668  10.133  67.628  1.00  0.00    -0.122 OA 
HETATM    2  C   UNL     1      -9.338   9.515  66.483  1.00  0.00    -0.171 C  
HETATM    3  H   UNL     1      -7.998   9.531  67.931  1.00  0.00     0.000 HD 
HETATM    4  O   UNL     1      -6.721   9.286  65.780  1.00  0.00    -0.074 OA 
HETATM    5  P   UNL     1     -10.293   8.027  66.957  1.00  0.00    -0.282 P  
HETATM    6  P   UNL     1      -8.179   9.207  65.138  1.00  0.00    -0.164 P  
HETATM    7  O   UNL     1     -10.682   8.836  68.355  1.00  0.00    -0.169 OA 
HETATM    8  O   UNL     1      -8.916   7.390  67.597  1.00  0.00    -0.127 OA 
HETATM    9  O   UNL     1      -8.192  10.514  64.210  1.00  0.00    -0.147 OA 
HETATM   10  O   UNL     1      -8.373   7.982  64.329  1.00  0.00    -0.110 OA 
HETATM   11  O   UNL     1     -11.101   6.769  67.357  1.00  0.00    -0.328 OA 
ENDROOT
BRANCH   2  12
HETATM   12  C   UNL     1     -10.434  10.501  65.987  1.00  0.00    -0.156 C  
BRANCH  12  13
HETATM   13  N   UNL     1     -10.507  11.834  66.569  1.00  0.00    -0.223 NA 
HETATM   14  C   UNL     1     -11.410  12.165  67.558  1.00  0.00    -0.326 A  
HETATM   15  C   UNL     1     -11.225  13.506  67.796  1.00  0.00    -0.282 A  
HETATM   16  N   UNL     1     -10.236  13.994  66.995  1.00  0.00    -0.259 NA 
HETATM   17  C   UNL     1      -9.842  12.984  66.260  1.00  0.00    -0.278 A  
ENDBRANCH  12  13
ENDBRANCH   2  12
TORSDOF 2
ENDMDL
MODEL      146
REMARK 921   NORMALIZED FREE ENERGY PREDICTED BY IDOCK:   -2.83 KCAL/MOL
REMARK 922        TOTAL FREE ENERGY PREDICTED BY IDOCK:   -3.47 KCAL/MOL
REMARK 923 INTER-LIGAND FREE ENERGY PREDICTED BY IDOCK:   -3.16 KCAL/MOL
REMARK 924 INTRA-LIGAND FREE ENERGY PREDICTED BY IDOCK:   -0.30 KCAL/MOL
REMARK 927      BINDING AFFINITY PREDICTED BY RF-SCORE:    0.00 PKD
ROOT
HETATM    1  O   UNL     1     -10.032   8.635  65.871  1.00  0.00    -0.469 OA 
HETATM    2  C   UNL     1      -8.661   8.930  66.293  1.00  0.00    -0.141 C  
HETATM    3  H   UNL     1      -9.997   7.905  65.265  1.00  0.00     0.000 HD 
HETATM    4  O   UNL     1      -8.811   6.252  66.741  1.00  0.00    -0.120 OA 
HETATM    5  P   UNL     1      -7.636   9.574  64.920  1.00  0.00    -0.124 P  
HETATM    6  P   UNL     1      -7.915   7.516  67.123  1.00  0.00    -0.120 P  
HETATM    7  O   UNL     1      -8.995  10.380  64.406  1.00  0.00    -0.193 OA 
HETATM    8  O   UNL     1      -8.001   8.218  64.058  1.00  0.00    -0.140 OA 
HETATM    9  O   UNL     1      -8.237   7.676  68.685  1.00  0.00    -0.125 OA 
HETATM   10  O   UNL     1      -6.472   7.271  66.903  1.00  0.00    -0.051 OA 
HETATM   11  O   UNL     1      -6.770  10.119  63.759  1.00  0.00    -0.131 OA 
ENDROOT
BRANCH   2  12
HETATM   12  C   UNL     1      -8.719  10.125  67.287  1.00  0.00    -0.129 C  
BRANCH  12  13
HETATM   13  N   UNL     1     -10.015  10.629  67.720  1.00  0.00    -0.164 NA 
HETATM   14  C   UNL     1     -10.556  11.802  67.239  1.00  0.00    -0.224 A  
HETATM   15  C   UNL     1     -11.735  11.977  67.922  1.00  0.00    -0.323 A  
HETATM   16  N   UNL     1     -11.932  10.945  68.790  1.00  0.00    -0.475 NA 
HETATM   17  C   UNL     1     -10.884  10.170  68.666  1.00  0.00    -0.235 A  
ENDBRANCH  12  13
ENDBRANCH   2  12
TORSDOF 2
ENDMDL
MODEL      147
REMARK 921   NORMALIZED FREE ENERGY PREDICTED BY IDOCK:   -2.81 KCAL/MOL
REMARK 922        TOTAL FREE ENERGY PREDICTED BY IDOCK:   -3.45 KCAL/MOL
REMARK 923 INTER-LIGAND FREE ENERGY PREDICTED BY IDOCK:   -3.76 KCAL/MOL
REMARK 924 INTRA-LIGAND FREE ENERGY PREDICTED BY IDOCK:    0.31 KCAL/MOL
REMARK 927      BINDING AFFINITY PREDICTED BY RF-SCORE:    0.00 PKD
ROOT
HETATM    1  O   UNL     1     -10.104  10.873  68.712  1.00  0.00    -0.180 OA 
HETATM    2  C   UNL     1      -9.797  11.943  67.762  1.00  0.00    -0.184 C  
HETATM    3  H   UNL     1     -10.844  10.386  68.371  1.00  0.00     0.000 HD 
HETATM    4  O   UNL     1      -9.881   9.767  66.133  1.00  0.00    -0.225 OA 
HETATM    5  P   UNL     1     -11.125  13.200  67.680  1.00  0.00    -0.297 P  
HETATM    6  P   UNL     1      -9.362  11.276  66.146  1.00  0.00    -0.220 P  
HETATM    7  O   UNL     1     -11.302  12.985  69.318  1.00  0.00    -0.267 OA 
HETATM    8  O   UNL     1     -12.192  12.000  67.313  1.00  0.00    -0.496 OA 
HETATM    9  O   UNL     1      -7.773  11.068  66.147  1.00  0.00    -0.155 OA 
HETATM   10  O   UNL     1      -9.796  12.031  64.950  1.00  0.00    -0.245 OA 
HETATM   11  O   UNL     1     -12.248  14.264  67.612  1.00  0.00    -0.337 OA 
ENDROOT
BRANCH   2  12
HETATM   12  C   UNL     1      -8.584  12.740  68.322  1.00  0.00    -0.166 C  
BRANCH  12  13
HETATM   13  N   UNL     1      -8.506  14.174  68.089  1.00  0.00    -0.164 NA 
HETATM   14  C   UNL     1      -8.567  15.098  69.111  1.00  0.00    -0.218 A  
HETATM   15  C   UNL     1      -8.531  16.330  68.503  1.00  0.00    -0.206 A  
HETATM   16  N   UNL     1      -8.440  16.184  67.151  1.00  0.00    -0.179 NA 
HETATM   17  C   UNL     1      -8.449  14.892  66.931  1.00  0.00    -0.223 A  
ENDBRANCH  12  13
ENDBRANCH   2  12
TORSDOF 2
ENDMDL
MODEL      148
REMARK 921   NORMALIZED FREE ENERGY PREDICTED BY IDOCK:   -2.81 KCAL/MOL
REMARK 922        TOTAL FREE ENERGY PREDICTED BY IDOCK:   -3.44 KCAL/MOL
REMARK 923 INTER-LIGAND FREE ENERGY PREDICTED BY IDOCK:   -3.64 KCAL/MOL
REMARK 924 INTRA-LIGAND FREE ENERGY PREDICTED BY IDOCK:    0.20 KCAL/MOL
REMARK 927      BINDING AFFINITY PREDICTED BY RF-SCORE:    0.00 PKD
ROOT
HETATM    1  O   UNL     1      -9.555  12.923  68.815  1.00  0.00    -0.402 OA 
HETATM    2  C   UNL     1      -9.652  11.851  67.823  1.00  0.00    -0.190 C  
HETATM    3  H   UNL     1      -9.046  13.627  68.430  1.00  0.00     0.000 HD 
HETATM    4  O   UNL     1     -10.440  14.014  66.375  1.00  0.00    -0.277 OA 
HETATM    5  P   UNL     1      -8.033  11.066  67.488  1.00  0.00    -0.124 P  
HETATM    6  P   UNL     1     -10.479  12.420  66.326  1.00  0.00    -0.260 P  
HETATM    7  O   UNL     1      -7.711  11.256  69.108  1.00  0.00    -0.120 OA 
HETATM    8  O   UNL     1      -7.433  12.549  67.099  1.00  0.00    -0.143 OA 
HETATM    9  O   UNL     1     -12.042  12.132  66.526  1.00  0.00    -0.627 OA 
HETATM   10  O   UNL     1     -10.003  11.884  65.031  1.00  0.00    -0.253 OA 
HETATM   11  O   UNL     1      -6.664  10.401  67.207  1.00  0.00    -0.074 OA 
ENDROOT
BRANCH   2  12
HETATM   12  C   UNL     1     -10.486  10.699  68.452  1.00  0.00    -0.188 C  
BRANCH  12  13
HETATM   13  N   UNL     1     -10.183   9.322  68.092  1.00  0.00    -0.195 NA 
HETATM   14  C   UNL     1     -10.531   8.778  66.873  1.00  0.00    -0.249 A  
HETATM   15  C   UNL     1     -10.146   7.460  66.930  1.00  0.00    -0.257 A  
HETATM   16  N   UNL     1      -9.567   7.191  68.133  1.00  0.00    -0.131 NA 
HETATM   17  C   UNL     1      -9.622   8.309  68.813  1.00  0.00    -0.150 A  
ENDBRANCH  12  13
ENDBRANCH   2  12
TORSDOF 2
ENDMDL
MODEL      149
REMARK 921   NORMALIZED FREE ENERGY PREDICTED BY IDOCK:   -2.79 KCAL/MOL
REMARK 922        TOTAL FREE ENERGY PREDICTED BY IDOCK:   -3.43 KCAL/MOL
REMARK 923 INTER-LIGAND FREE ENERGY PREDICTED BY IDOCK:   -3.35 KCAL/MOL
REMARK 924 INTRA-LIGAND FREE ENERGY PREDICTED BY IDOCK:   -0.08 KCAL/MOL
REMARK 927      BINDING AFFINITY PREDICTED BY RF-SCORE:    0.00 PKD
ROOT
HETATM    1  O   UNL     1     -10.282  10.060  68.914  1.00  0.00    -0.175 OA 
HETATM    2  C   UNL     1      -9.060   9.952  68.115  1.00  0.00    -0.121 C  
HETATM    3  H   UNL     1     -10.266   9.366  69.562  1.00  0.00     0.000 HD 
HETATM    4  O   UNL     1      -8.068   9.924  70.647  1.00  0.00    -0.240 OA 
HETATM    5  P   UNL     1      -9.026   8.429  67.101  1.00  0.00    -0.144 P  
HETATM    6  P   UNL     1      -7.591  10.146  69.140  1.00  0.00    -0.129 P  
HETATM    7  O   UNL     1     -10.658   8.651  66.880  1.00  0.00    -0.287 OA 
HETATM    8  O   UNL     1      -9.238   7.549  68.477  1.00  0.00    -0.143 OA 
HETATM    9  O   UNL     1      -7.235  11.708  69.144  1.00  0.00    -0.112 OA 
HETATM   10  O   UNL     1      -6.402   9.333  68.800  1.00  0.00    -0.047 OA 
HETATM   11  O   UNL     1      -8.998   7.141  66.243  1.00  0.00    -0.153 OA 
ENDROOT
BRANCH   2  12
HETATM   12  C   UNL     1      -9.087  11.089  67.053  1.00  0.00    -0.147 C  
BRANCH  12  13
HETATM   13  N   UNL     1     -10.286  11.902  66.912  1.00  0.00    -0.206 NA 
HETATM   14  C   UNL     1     -10.548  12.988  67.722  1.00  0.00    -0.226 A  
HETATM   15  C   UNL     1     -11.783  13.450  67.337  1.00  0.00    -0.373 A  
HETATM   16  N   UNL     1     -12.271  12.691  66.316  1.00  0.00    -0.566 NA 
HETATM   17  C   UNL     1     -11.372  11.765  66.099  1.00  0.00    -0.280 A  
ENDBRANCH  12  13
ENDBRANCH   2  12
TORSDOF 2
ENDMDL
MODEL      150
REMARK 921   NORMALIZED FREE ENERGY PREDICTED BY IDOCK:   -2.79 KCAL/MOL
REMARK 922        TOTAL FREE ENERGY PREDICTED BY IDOCK:   -3.43 KCAL/MOL
REMARK 923 INTER-LIGAND FREE ENERGY PREDICTED BY IDOCK:   -3.11 KCAL/MOL
REMARK 924 INTRA-LIGAND FREE ENERGY PREDICTED BY IDOCK:   -0.32 KCAL/MOL
REMARK 927      BINDING AFFINITY PREDICTED BY RF-SCORE:    0.00 PKD
ROOT
HETATM    1  O   UNL     1      -8.582   7.836  69.136  1.00  0.00    -0.136 OA 
HETATM    2  C   UNL     1      -9.562   7.734  68.053  1.00  0.00    -0.150 C  
HETATM    3  H   UNL     1      -7.780   8.187  68.767  1.00  0.00     0.000 HD 
HETATM    4  O   UNL     1      -8.715  10.304  67.788  1.00  0.00    -0.121 OA 
HETATM    5  P   UNL     1      -9.090   6.480  66.806  1.00  0.00    -0.152 P  
HETATM    6  P   UNL     1      -9.908   9.347  67.331  1.00  0.00    -0.199 P  
HETATM    7  O   UNL     1      -8.515   5.571  68.072  1.00  0.00    -0.100 OA 
HETATM    8  O   UNL     1      -7.660   7.271  66.602  1.00  0.00    -0.089 OA 
HETATM    9  O   UNL     1     -11.142   9.963  68.147  1.00  0.00    -0.239 OA 
HETATM   10  O   UNL     1     -10.153   9.411  65.872  1.00  0.00    -0.296 OA 
HETATM   11  O   UNL     1      -8.691   5.419  65.751  1.00  0.00    -0.139 OA 
ENDROOT
BRANCH   2  12
HETATM   12  C   UNL     1     -10.876   7.160  68.658  1.00  0.00    -0.108 C  
BRANCH  12  13
HETATM   13  N   UNL     1     -11.011   7.066  70.104  1.00  0.00    -0.262 NA 
HETATM   14  C   UNL     1     -10.874   5.876  70.788  1.00  0.00    -0.283 A  
HETATM   15  C   UNL     1     -11.136   6.170  72.104  1.00  0.00    -0.275 A  
HETATM   16  N   UNL     1     -11.414   7.497  72.242  1.00  0.00    -0.287 NA 
HETATM   17  C   UNL     1     -11.356   8.001  71.035  1.00  0.00    -0.273 A  
ENDBRANCH  12  13
ENDBRANCH   2  12
TORSDOF 2
ENDMDL
MODEL      151
REMARK 921   NORMALIZED FREE ENERGY PREDICTED BY IDOCK:   -2.78 KCAL/MOL
REMARK 922        TOTAL FREE ENERGY PREDICTED BY IDOCK:   -3.41 KCAL/MOL
REMARK 923 INTER-LIGAND FREE ENERGY PREDICTED BY IDOCK:   -3.09 KCAL/MOL
REMARK 924 INTRA-LIGAND FREE ENERGY PREDICTED BY IDOCK:   -0.32 KCAL/MOL
REMARK 927      BINDING AFFINITY PREDICTED BY RF-SCORE:    0.00 PKD
ROOT
HETATM    1  O   UNL     1     -10.233   8.526  66.187  1.00  0.00    -0.446 OA 
HETATM    2  C   UNL     1      -9.183   9.507  66.468  1.00  0.00    -0.160 C  
HETATM    3  H   UNL     1     -10.407   8.550  65.253  1.00  0.00     0.000 HD 
HETATM    4  O   UNL     1      -8.078   8.088  64.429  1.00  0.00    -0.148 OA 
HETATM    5  P   UNL     1      -9.746  11.226  66.188  1.00  0.00    -0.241 P  
HETATM    6  P   UNL     1      -7.666   9.112  65.581  1.00  0.00    -0.097 P  
HETATM    7  O   UNL     1     -11.215  10.746  66.798  1.00  0.00    -0.217 OA 
HETATM    8  O   UNL     1     -10.145  10.808  64.646  1.00  0.00    -0.297 OA 
HETATM    9  O   UNL     1      -6.798   8.174  66.548  1.00  0.00    -0.065 OA 
HETATM   10  O   UNL     1      -6.855  10.239  65.068  1.00  0.00    -0.132 OA 
HETATM   11  O   UNL     1     -10.223  12.680  65.952  1.00  0.00    -0.264 OA 
ENDROOT
BRANCH   2  12
HETATM   12  C   UNL     1      -8.897   9.469  67.997  1.00  0.00    -0.123 C  
BRANCH  12  13
HETATM   13  N   UNL     1      -9.502   8.422  68.808  1.00  0.00    -0.147 NA 
HETATM   14  C   UNL     1     -10.641   8.626  69.558  1.00  0.00    -0.213 A  
HETATM   15  C   UNL     1     -10.862   7.447  70.228  1.00  0.00    -0.245 A  
HETATM   16  N   UNL     1      -9.905   6.534  69.901  1.00  0.00    -0.166 NA 
HETATM   17  C   UNL     1      -9.096   7.147  69.072  1.00  0.00    -0.132 A  
ENDBRANCH  12  13
ENDBRANCH   2  12
TORSDOF 2
ENDMDL
MODEL      152
REMARK 921   NORMALIZED FREE ENERGY PREDICTED BY IDOCK:   -2.78 KCAL/MOL
REMARK 922        TOTAL FREE ENERGY PREDICTED BY IDOCK:   -3.41 KCAL/MOL
REMARK 923 INTER-LIGAND FREE ENERGY PREDICTED BY IDOCK:   -3.16 KCAL/MOL
REMARK 924 INTRA-LIGAND FREE ENERGY PREDICTED BY IDOCK:   -0.25 KCAL/MOL
REMARK 927      BINDING AFFINITY PREDICTED BY RF-SCORE:    0.00 PKD
ROOT
HETATM    1  O   UNL     1      -9.309   9.629  71.202  1.00  0.00    -0.322 OA 
HETATM    2  C   UNL     1      -8.470   8.942  70.219  1.00  0.00    -0.160 C  
HETATM    3  H   UNL     1      -9.113  10.557  71.151  1.00  0.00     0.000 HD 
HETATM    4  O   UNL     1      -9.595  10.904  68.709  1.00  0.00    -0.180 OA 
HETATM    5  P   UNL     1      -6.692   9.020  70.647  1.00  0.00    -0.083 P  
HETATM    6  P   UNL     1      -8.816   9.520  68.548  1.00  0.00    -0.125 P  
HETATM    7  O   UNL     1      -7.162   8.857  72.232  1.00  0.00    -0.319 OA 
HETATM    8  O   UNL     1      -6.809  10.663  70.683  1.00  0.00    -0.303 OA 
HETATM    9  O   UNL     1      -9.967   8.572  67.961  1.00  0.00    -0.167 OA 
HETATM   10  O   UNL     1      -7.680   9.619  67.605  1.00  0.00    -0.094 OA 
HETATM   11  O   UNL     1      -5.189   9.086  71.009  1.00  0.00    -0.027 OA 
ENDROOT
BRANCH   2  12
HETATM   12  C   UNL     1      -8.792   7.422  70.302  1.00  0.00    -0.147 C  
BRANCH  12  13
HETATM   13  N   UNL     1      -9.880   6.971  71.157  1.00  0.00    -0.177 NA 
HETATM   14  C   UNL     1     -11.190   6.914  70.727  1.00  0.00    -0.294 A  
HETATM   15  C   UNL     1     -11.923   6.513  71.817  1.00  0.00    -0.344 A  
HETATM   16  N   UNL     1     -11.104   6.315  72.887  1.00  0.00    -0.253 NA 
HETATM   17  C   UNL     1      -9.898   6.616  72.474  1.00  0.00    -0.165 A  
ENDBRANCH  12  13
ENDBRANCH   2  12
TORSDOF 2
ENDMDL
MODEL      153
REMARK 921   NORMALIZED FREE ENERGY PREDICTED BY IDOCK:   -2.77 KCAL/MOL
REMARK 922        TOTAL FREE ENERGY PREDICTED BY IDOCK:   -3.40 KCAL/MOL
REMARK 923 INTER-LIGAND FREE ENERGY PREDICTED BY IDOCK:   -3.53 KCAL/MOL
REMARK 924 INTRA-LIGAND FREE ENERGY PREDICTED BY IDOCK:    0.13 KCAL/MOL
REMARK 927      BINDING AFFINITY PREDICTED BY RF-SCORE:    0.00 PKD
ROOT
HETATM    1  O   UNL     1     -10.511   9.035  72.115  1.00  0.00    -0.321 OA 
HETATM    2  C   UNL     1      -9.705   8.538  70.999  1.00  0.00    -0.193 C  
HETATM    3  H   UNL     1     -10.417   8.423  72.835  1.00  0.00     0.000 HD 
HETATM    4  O   UNL     1      -7.913   8.479  73.043  1.00  0.00    -0.344 OA 
HETATM    5  P   UNL     1     -10.362   6.974  70.312  1.00  0.00    -0.213 P  
HETATM    6  P   UNL     1      -7.964   8.430  71.449  1.00  0.00    -0.146 P  
HETATM    7  O   UNL     1     -11.877   7.597  70.589  1.00  0.00    -0.251 OA 
HETATM    8  O   UNL     1     -10.258   6.309  71.815  1.00  0.00    -0.192 OA 
HETATM    9  O   UNL     1      -7.301   9.837  71.065  1.00  0.00    -0.329 OA 
HETATM   10  O   UNL     1      -7.178   7.305  70.895  1.00  0.00    -0.067 OA 
HETATM   11  O   UNL     1     -10.918   5.652  69.729  1.00  0.00    -0.345 OA 
ENDROOT
BRANCH   2  12
HETATM   12  C   UNL     1      -9.860   9.540  69.820  1.00  0.00    -0.215 C  
BRANCH  12  13
HETATM   13  N   UNL     1      -9.631   9.079  68.459  1.00  0.00    -0.151 NA 
HETATM   14  C   UNL     1      -8.369   8.975  67.910  1.00  0.00    -0.117 A  
HETATM   15  C   UNL     1      -8.560   8.579  66.609  1.00  0.00    -0.115 A  
HETATM   16  N   UNL     1      -9.890   8.428  66.354  1.00  0.00    -0.257 NA 
HETATM   17  C   UNL     1     -10.505   8.753  67.464  1.00  0.00    -0.271 A  
ENDBRANCH  12  13
ENDBRANCH   2  12
TORSDOF 2
ENDMDL
MODEL      154
REMARK 921   NORMALIZED FREE ENERGY PREDICTED BY IDOCK:   -2.77 KCAL/MOL
REMARK 922        TOTAL FREE ENERGY PREDICTED BY IDOCK:   -3.40 KCAL/MOL
REMARK 923 INTER-LIGAND FREE ENERGY PREDICTED BY IDOCK:   -3.14 KCAL/MOL
REMARK 924 INTRA-LIGAND FREE ENERGY PREDICTED BY IDOCK:   -0.25 KCAL/MOL
REMARK 927      BINDING AFFINITY PREDICTED BY RF-SCORE:    0.00 PKD
ROOT
HETATM    1  O   UNL     1      -9.206   8.903  72.021  1.00  0.00    -0.348 OA 
HETATM    2  C   UNL     1     -10.033   8.216  71.028  1.00  0.00    -0.187 C  
HETATM    3  H   UNL     1      -9.766   9.505  72.496  1.00  0.00     0.000 HD 
HETATM    4  O   UNL     1     -11.488   7.859  73.297  1.00  0.00    -0.290 OA 
HETATM    5  P   UNL     1     -10.635   9.349  69.722  1.00  0.00    -0.249 P  
HETATM    6  P   UNL     1     -11.359   7.284  71.815  1.00  0.00    -0.275 P  
HETATM    7  O   UNL     1      -9.157  10.102  69.825  1.00  0.00    -0.203 OA 
HETATM    8  O   UNL     1     -11.302  10.292  70.897  1.00  0.00    -0.337 OA 
HETATM    9  O   UNL     1     -10.787   5.813  72.091  1.00  0.00    -0.225 OA 
HETATM   10  O   UNL     1     -12.664   7.222  71.119  1.00  0.00    -0.350 OA 
HETATM   11  O   UNL     1     -11.143  10.307  68.618  1.00  0.00    -0.243 OA 
ENDROOT
BRANCH   2  12
HETATM   12  C   UNL     1      -9.116   7.229  70.250  1.00  0.00    -0.152 C  
BRANCH  12  13
HETATM   13  N   UNL     1      -7.730   7.067  70.666  1.00  0.00    -0.094 NA 
HETATM   14  C   UNL     1      -7.350   6.197  71.666  1.00  0.00    -0.089 A  
HETATM   15  C   UNL     1      -5.996   6.372  71.818  1.00  0.00    -0.037 A  
HETATM   16  N   UNL     1      -5.542   7.308  70.938  1.00  0.00    -0.027 NA 
HETATM   17  C   UNL     1      -6.597   7.721  70.281  1.00  0.00    -0.038 A  
ENDBRANCH  12  13
ENDBRANCH   2  12
TORSDOF 2
ENDMDL
MODEL      155
REMARK 921   NORMALIZED FREE ENERGY PREDICTED BY IDOCK:   -2.75 KCAL/MOL
REMARK 922        TOTAL FREE ENERGY PREDICTED BY IDOCK:   -3.38 KCAL/MOL
REMARK 923 INTER-LIGAND FREE ENERGY PREDICTED BY IDOCK:   -3.27 KCAL/MOL
REMARK 924 INTRA-LIGAND FREE ENERGY PREDICTED BY IDOCK:   -0.11 KCAL/MOL
REMARK 927      BINDING AFFINITY PREDICTED BY RF-SCORE:    0.00 PKD
ROOT
HETATM    1  O   UNL     1     -11.344   8.044  69.524  1.00  0.00    -0.446 OA 
HETATM    2  C   UNL     1     -10.873   9.236  70.230  1.00  0.00    -0.246 C  
HETATM    3  H   UNL     1     -12.024   7.644  70.054  1.00  0.00     0.000 HD 
HETATM    4  O   UNL     1     -13.564   9.622  70.233  1.00  0.00     0.276 OA 
HETATM    5  P   UNL     1     -10.005   8.823  71.788  1.00  0.00    -0.285 P  
HETATM    6  P   UNL     1     -12.206  10.426  70.464  1.00  0.00    -0.316 P  
HETATM    7  O   UNL     1      -9.382   7.509  70.984  1.00  0.00    -0.155 OA 
HETATM    8  O   UNL     1     -11.348   8.004  72.278  1.00  0.00    -0.299 OA 
HETATM    9  O   UNL     1     -12.186  11.395  69.187  1.00  0.00    -0.344 OA 
HETATM   10  O   UNL     1     -12.219  11.207  71.721  1.00  0.00    -0.057 OA 
HETATM   11  O   UNL     1      -9.271   8.473  73.105  1.00  0.00    -0.220 OA 
ENDROOT
BRANCH   2  12
HETATM   12  C   UNL     1      -9.759   9.890  69.363  1.00  0.00    -0.214 C  
BRANCH  12  13
HETATM   13  N   UNL     1      -9.607   9.482  67.975  1.00  0.00    -0.136 NA 
HETATM   14  C   UNL     1     -10.176  10.176  66.928  1.00  0.00    -0.236 A  
HETATM   15  C   UNL     1      -9.873   9.458  65.796  1.00  0.00    -0.275 A  
HETATM   16  N   UNL     1      -9.132   8.361  66.119  1.00  0.00    -0.179 NA 
HETATM   17  C   UNL     1      -9.008   8.387  67.423  1.00  0.00    -0.134 A  
ENDBRANCH  12  13
ENDBRANCH   2  12
TORSDOF 2
ENDMDL
MODEL      156
REMARK 921   NORMALIZED FREE ENERGY PREDICTED BY IDOCK:   -2.75 KCAL/MOL
REMARK 922        TOTAL FREE ENERGY PREDICTED BY IDOCK:   -3.38 KCAL/MOL
REMARK 923 INTER-LIGAND FREE ENERGY PREDICTED BY IDOCK:   -3.18 KCAL/MOL
REMARK 924 INTRA-LIGAND FREE ENERGY PREDICTED BY IDOCK:   -0.20 KCAL/MOL
REMARK 927      BINDING AFFINITY PREDICTED BY RF-SCORE:    0.00 PKD
ROOT
HETATM    1  O   UNL     1     -10.285   6.170  69.834  1.00  0.00    -0.172 OA 
HETATM    2  C   UNL     1      -9.988   7.190  70.841  1.00  0.00    -0.189 C  
HETATM    3  H   UNL     1     -10.614   5.403  70.287  1.00  0.00     0.000 HD 
HETATM    4  O   UNL     1     -12.531   6.485  71.501  1.00  0.00    -0.314 OA 
HETATM    5  P   UNL     1      -8.594   6.710  71.925  1.00  0.00    -0.123 P  
HETATM    6  P   UNL     1     -11.468   7.647  71.761  1.00  0.00    -0.292 P  
HETATM    7  O   UNL     1      -7.898   6.036  70.576  1.00  0.00    -0.098 OA 
HETATM    8  O   UNL     1      -9.410   5.331  72.307  1.00  0.00    -0.141 OA 
HETATM    9  O   UNL     1     -12.137   8.874  70.977  1.00  0.00    -0.288 OA 
HETATM   10  O   UNL     1     -11.315   7.959  73.200  1.00  0.00    -0.361 OA 
HETATM   11  O   UNL     1      -7.414   6.304  72.842  1.00  0.00    -0.094 OA 
ENDROOT
BRANCH   2  12
HETATM   12  C   UNL     1      -9.449   8.445  70.098  1.00  0.00    -0.164 C  
BRANCH  12  13
HETATM   13  N   UNL     1      -9.475   8.478  68.643  1.00  0.00    -0.143 NA 
HETATM   14  C   UNL     1     -10.469   9.117  67.931  1.00  0.00    -0.237 A  
HETATM   15  C   UNL     1     -10.194   8.874  66.607  1.00  0.00    -0.268 A  
HETATM   16  N   UNL     1      -9.065   8.120  66.493  1.00  0.00    -0.165 NA 
HETATM   17  C   UNL     1      -8.670   7.880  67.719  1.00  0.00    -0.127 A  
ENDBRANCH  12  13
ENDBRANCH   2  12
TORSDOF 2
ENDMDL
MODEL      157
REMARK 921   NORMALIZED FREE ENERGY PREDICTED BY IDOCK:   -2.75 KCAL/MOL
REMARK 922        TOTAL FREE ENERGY PREDICTED BY IDOCK:   -3.38 KCAL/MOL
REMARK 923 INTER-LIGAND FREE ENERGY PREDICTED BY IDOCK:   -3.53 KCAL/MOL
REMARK 924 INTRA-LIGAND FREE ENERGY PREDICTED BY IDOCK:    0.15 KCAL/MOL
REMARK 927      BINDING AFFINITY PREDICTED BY RF-SCORE:    0.00 PKD
ROOT
HETATM    1  O   UNL     1     -10.833  10.558  64.499  1.00  0.00    -0.150 OA 
HETATM    2  C   UNL     1     -10.155  10.751  65.782  1.00  0.00    -0.261 C  
HETATM    3  H   UNL     1     -10.478  11.191  63.886  1.00  0.00     0.000 HD 
HETATM    4  O   UNL     1      -8.051  10.566  64.069  1.00  0.00    -0.125 OA 
HETATM    5  P   UNL     1     -10.571  12.359  66.551  1.00  0.00    -0.248 P  
HETATM    6  P   UNL     1      -8.379  10.485  65.628  1.00  0.00    -0.147 P  
HETATM    7  O   UNL     1     -12.109  12.138  65.962  1.00  0.00    -0.612 OA 
HETATM    8  O   UNL     1     -10.053  13.110  65.179  1.00  0.00    -0.281 OA 
HETATM    9  O   UNL     1      -8.119   8.933  65.930  1.00  0.00    -0.103 OA 
HETATM   10  O   UNL     1      -7.482  11.340  66.438  1.00  0.00    -0.133 OA 
HETATM   11  O   UNL     1     -10.923  13.719  67.202  1.00  0.00    -0.283 OA 
ENDROOT
BRANCH   2  12
HETATM   12  C   UNL     1     -10.735   9.714  66.785  1.00  0.00    -0.078 C  
BRANCH  12  13
HETATM   13  N   UNL     1     -10.623   9.966  68.214  1.00  0.00    -0.216 NA 
HETATM   14  C   UNL     1      -9.527   9.574  68.955  1.00  0.00    -0.158 A  
HETATM   15  C   UNL     1      -9.813   9.919  70.254  1.00  0.00    -0.179 A  
HETATM   16  N   UNL     1     -11.037  10.516  70.323  1.00  0.00    -0.303 NA 
HETATM   17  C   UNL     1     -11.506  10.510  69.100  1.00  0.00    -0.247 A  
ENDBRANCH  12  13
ENDBRANCH   2  12
TORSDOF 2
ENDMDL
MODEL      158
REMARK 921   NORMALIZED FREE ENERGY PREDICTED BY IDOCK:   -2.72 KCAL/MOL
REMARK 922        TOTAL FREE ENERGY PREDICTED BY IDOCK:   -3.34 KCAL/MOL
REMARK 923 INTER-LIGAND FREE ENERGY PREDICTED BY IDOCK:   -3.05 KCAL/MOL
REMARK 924 INTRA-LIGAND FREE ENERGY PREDICTED BY IDOCK:   -0.29 KCAL/MOL
REMARK 927      BINDING AFFINITY PREDICTED BY RF-SCORE:    0.00 PKD
ROOT
HETATM    1  O   UNL     1      -8.576   7.612  70.579  1.00  0.00    -0.134 OA 
HETATM    2  C   UNL     1      -9.937   7.715  70.051  1.00  0.00    -0.190 C  
HETATM    3  H   UNL     1      -8.632   7.623  71.527  1.00  0.00     0.000 HD 
HETATM    4  O   UNL     1     -10.190   5.674  71.830  1.00  0.00    -0.189 OA 
HETATM    5  P   UNL     1     -10.699   9.341  70.407  1.00  0.00    -0.294 P  
HETATM    6  P   UNL     1     -10.954   6.330  70.592  1.00  0.00    -0.336 P  
HETATM    7  O   UNL     1      -9.195   9.999  70.147  1.00  0.00    -0.189 OA 
HETATM    8  O   UNL     1     -10.412   9.085  72.009  1.00  0.00    -0.346 OA 
HETATM    9  O   UNL     1     -10.803   5.186  69.480  1.00  0.00    -0.103 OA 
HETATM   10  O   UNL     1     -12.380   6.597  70.887  1.00  0.00    -0.353 OA 
HETATM   11  O   UNL     1     -11.342  10.717  70.708  1.00  0.00    -0.301 OA 
ENDROOT
BRANCH   2  12
HETATM   12  C   UNL     1      -9.845   7.696  68.498  1.00  0.00    -0.167 C  
BRANCH  12  13
HETATM   13  N   UNL     1      -8.590   7.317  67.865  1.00  0.00    -0.121 NA 
HETATM   14  C   UNL     1      -7.776   8.226  67.223  1.00  0.00    -0.101 A  
HETATM   15  C   UNL     1      -6.738   7.493  66.701  1.00  0.00    -0.058 A  
HETATM   16  N   UNL     1      -6.889   6.176  67.014  1.00  0.00    -0.064 NA 
HETATM   17  C   UNL     1      -8.010   6.095  67.687  1.00  0.00    -0.106 A  
ENDBRANCH  12  13
ENDBRANCH   2  12
TORSDOF 2
ENDMDL
MODEL      159
REMARK 921   NORMALIZED FREE ENERGY PREDICTED BY IDOCK:   -2.69 KCAL/MOL
REMARK 922        TOTAL FREE ENERGY PREDICTED BY IDOCK:   -3.32 KCAL/MOL
REMARK 923 INTER-LIGAND FREE ENERGY PREDICTED BY IDOCK:   -3.00 KCAL/MOL
REMARK 924 INTRA-LIGAND FREE ENERGY PREDICTED BY IDOCK:   -0.32 KCAL/MOL
REMARK 927      BINDING AFFINITY PREDICTED BY RF-SCORE:    0.00 PKD
ROOT
HETATM    1  O   UNL     1      -8.423   6.814  69.397  1.00  0.00    -0.130 OA 
HETATM    2  C   UNL     1      -9.543   7.750  69.286  1.00  0.00    -0.159 C  
HETATM    3  H   UNL     1      -8.018   6.947  70.246  1.00  0.00     0.000 HD 
HETATM    4  O   UNL     1     -10.044   6.572  71.686  1.00  0.00    -0.182 OA 
HETATM    5  P   UNL     1      -8.987   9.492  69.219  1.00  0.00    -0.184 P  
HETATM    6  P   UNL     1     -10.770   7.453  70.572  1.00  0.00    -0.242 P  
HETATM    7  O   UNL     1      -7.705   8.951  68.311  1.00  0.00    -0.094 OA 
HETATM    8  O   UNL     1      -8.196   9.259  70.645  1.00  0.00    -0.166 OA 
HETATM    9  O   UNL     1     -11.822   6.404  69.970  1.00  0.00    -0.404 OA 
HETATM   10  O   UNL     1     -11.464   8.628  71.145  1.00  0.00    -0.262 OA 
HETATM   11  O   UNL     1      -8.517  10.966  69.161  1.00  0.00    -0.137 OA 
ENDROOT
BRANCH   2  12
HETATM   12  C   UNL     1     -10.206   7.531  67.896  1.00  0.00    -0.194 C  
BRANCH  12  13
HETATM   13  N   UNL     1      -9.817   6.380  67.096  1.00  0.00    -0.138 NA 
HETATM   14  C   UNL     1      -8.872   6.455  66.094  1.00  0.00    -0.150 A  
HETATM   15  C   UNL     1      -8.827   5.203  65.529  1.00  0.00    -0.148 A  
HETATM   16  N   UNL     1      -9.702   4.371  66.160  1.00  0.00    -0.194 NA 
HETATM   17  C   UNL     1     -10.293   5.102  67.073  1.00  0.00    -0.217 A  
ENDBRANCH  12  13
ENDBRANCH   2  12
TORSDOF 2
ENDMDL
MODEL      160
REMARK 921   NORMALIZED FREE ENERGY PREDICTED BY IDOCK:   -2.69 KCAL/MOL
REMARK 922        TOTAL FREE ENERGY PREDICTED BY IDOCK:   -3.31 KCAL/MOL
REMARK 923 INTER-LIGAND FREE ENERGY PREDICTED BY IDOCK:   -3.03 KCAL/MOL
REMARK 924 INTRA-LIGAND FREE ENERGY PREDICTED BY IDOCK:   -0.28 KCAL/MOL
REMARK 927      BINDING AFFINITY PREDICTED BY RF-SCORE:    0.00 PKD
ROOT
HETATM    1  O   UNL     1     -10.685   5.518  70.260  1.00  0.00    -0.294 OA 
HETATM    2  C   UNL     1      -9.902   6.409  71.118  1.00  0.00    -0.179 C  
HETATM    3  H   UNL     1     -10.862   5.979  69.449  1.00  0.00     0.000 HD 
HETATM    4  O   UNL     1      -8.492   6.501  68.794  1.00  0.00    -0.121 OA 
HETATM    5  P   UNL     1     -10.863   7.868  71.664  1.00  0.00    -0.252 P  
HETATM    6  P   UNL     1      -8.336   6.850  70.343  1.00  0.00    -0.131 P  
HETATM    7  O   UNL     1     -12.172   6.850  71.770  1.00  0.00    -0.326 OA 
HETATM    8  O   UNL     1     -11.152   8.227  70.083  1.00  0.00    -0.252 OA 
HETATM    9  O   UNL     1      -7.266   5.754  70.812  1.00  0.00    -0.074 OA 
HETATM   10  O   UNL     1      -7.821   8.220  70.563  1.00  0.00    -0.081 OA 
HETATM   11  O   UNL     1     -11.676   9.101  72.127  1.00  0.00    -0.342 OA 
ENDROOT
BRANCH   2  12
HETATM   12  C   UNL     1      -9.612   5.653  72.446  1.00  0.00    -0.149 C  
BRANCH  12  13
HETATM   13  N   UNL     1      -9.989   4.252  72.564  1.00  0.00    -0.153 NA 
HETATM   14  C   UNL     1     -11.030   3.827  73.363  1.00  0.00    -0.222 A  
HETATM   15  C   UNL     1     -11.035   2.456  73.269  1.00  0.00    -0.169 A  
HETATM   16  N   UNL     1     -10.042   2.038  72.434  1.00  0.00    -0.146 NA 
HETATM   17  C   UNL     1      -9.422   3.125  72.046  1.00  0.00    -0.134 A  
ENDBRANCH  12  13
ENDBRANCH   2  12
TORSDOF 2
ENDMDL
MODEL      161
REMARK 921   NORMALIZED FREE ENERGY PREDICTED BY IDOCK:   -2.67 KCAL/MOL
REMARK 922        TOTAL FREE ENERGY PREDICTED BY IDOCK:   -3.29 KCAL/MOL
REMARK 923 INTER-LIGAND FREE ENERGY PREDICTED BY IDOCK:   -2.97 KCAL/MOL
REMARK 924 INTRA-LIGAND FREE ENERGY PREDICTED BY IDOCK:   -0.32 KCAL/MOL
REMARK 927      BINDING AFFINITY PREDICTED BY RF-SCORE:    0.00 PKD
ROOT
HETATM    1  O   UNL     1      -9.025   8.051  70.604  1.00  0.00    -0.144 OA 
HETATM    2  C   UNL     1      -9.645   7.169  71.594  1.00  0.00    -0.155 C  
HETATM    3  H   UNL     1      -9.082   8.940  70.932  1.00  0.00     0.000 HD 
HETATM    4  O   UNL     1      -7.918   8.598  73.133  1.00  0.00    -0.392 OA 
HETATM    5  P   UNL     1     -11.448   7.449  71.739  1.00  0.00    -0.290 P  
HETATM    6  P   UNL     1      -8.791   7.263  73.177  1.00  0.00    -0.168 P  
HETATM    7  O   UNL     1     -11.449   7.692  70.095  1.00  0.00    -0.199 OA 
HETATM    8  O   UNL     1     -11.141   9.034  72.067  1.00  0.00    -0.364 OA 
HETATM    9  O   UNL     1      -7.652   6.135  73.153  1.00  0.00    -0.096 OA 
HETATM   10  O   UNL     1      -9.608   7.164  74.407  1.00  0.00    -0.226 OA 
HETATM   11  O   UNL     1     -12.973   7.685  71.861  1.00  0.00    -0.312 OA 
ENDROOT
BRANCH   2  12
HETATM   12  C   UNL     1      -9.551   5.713  71.055  1.00  0.00    -0.169 C  
BRANCH  12  13
HETATM   13  N   UNL     1      -8.748   5.442  69.872  1.00  0.00    -0.119 NA 
HETATM   14  C   UNL     1      -9.298   5.304  68.615  1.00  0.00    -0.121 A  
HETATM   15  C   UNL     1      -8.251   4.991  67.783  1.00  0.00    -0.098 A  
HETATM   16  N   UNL     1      -7.086   4.947  68.489  1.00  0.00    -0.056 NA 
HETATM   17  C   UNL     1      -7.414   5.196  69.732  1.00  0.00    -0.061 A  
ENDBRANCH  12  13
ENDBRANCH   2  12
TORSDOF 2
ENDMDL
MODEL      162
REMARK 921   NORMALIZED FREE ENERGY PREDICTED BY IDOCK:   -2.67 KCAL/MOL
REMARK 922        TOTAL FREE ENERGY PREDICTED BY IDOCK:   -3.29 KCAL/MOL
REMARK 923 INTER-LIGAND FREE ENERGY PREDICTED BY IDOCK:   -3.43 KCAL/MOL
REMARK 924 INTRA-LIGAND FREE ENERGY PREDICTED BY IDOCK:    0.14 KCAL/MOL
REMARK 927      BINDING AFFINITY PREDICTED BY RF-SCORE:    0.00 PKD
ROOT
HETATM    1  O   UNL     1      -9.328   9.013  71.980  1.00  0.00    -0.358 OA 
HETATM    2  C   UNL     1      -9.577   7.768  71.251  1.00  0.00    -0.157 C  
HETATM    3  H   UNL     1      -9.602   8.880  72.880  1.00  0.00     0.000 HD 
HETATM    4  O   UNL     1      -8.185   6.873  73.408  1.00  0.00    -0.108 OA 
HETATM    5  P   UNL     1     -11.364   7.401  71.096  1.00  0.00    -0.285 P  
HETATM    6  P   UNL     1      -8.638   6.401  71.953  1.00  0.00    -0.126 P  
HETATM    7  O   UNL     1     -11.589   9.036  70.907  1.00  0.00    -0.279 OA 
HETATM    8  O   UNL     1     -11.487   7.478  72.737  1.00  0.00    -0.334 OA 
HETATM    9  O   UNL     1      -7.235   6.362  71.179  1.00  0.00    -0.075 OA 
HETATM   10  O   UNL     1      -9.273   5.064  71.966  1.00  0.00    -0.134 OA 
HETATM   11  O   UNL     1     -12.875   7.090  70.964  1.00  0.00    -0.349 OA 
ENDROOT
BRANCH   2  12
HETATM   12  C   UNL     1      -9.127   7.986  69.778  1.00  0.00    -0.149 C  
BRANCH  12  13
HETATM   13  N   UNL     1      -9.688   7.144  68.731  1.00  0.00    -0.144 NA 
HETATM   14  C   UNL     1     -10.511   7.637  67.740  1.00  0.00    -0.216 A  
HETATM   15  C   UNL     1     -10.888   6.548  66.993  1.00  0.00    -0.395 A  
HETATM   16  N   UNL     1     -10.314   5.416  67.488  1.00  0.00    -0.200 NA 
HETATM   17  C   UNL     1      -9.624   5.796  68.535  1.00  0.00    -0.126 A  
ENDBRANCH  12  13
ENDBRANCH   2  12
TORSDOF 2
ENDMDL
MODEL      163
REMARK 921   NORMALIZED FREE ENERGY PREDICTED BY IDOCK:   -2.67 KCAL/MOL
REMARK 922        TOTAL FREE ENERGY PREDICTED BY IDOCK:   -3.29 KCAL/MOL
REMARK 923 INTER-LIGAND FREE ENERGY PREDICTED BY IDOCK:   -3.46 KCAL/MOL
REMARK 924 INTRA-LIGAND FREE ENERGY PREDICTED BY IDOCK:    0.18 KCAL/MOL
REMARK 927      BINDING AFFINITY PREDICTED BY RF-SCORE:    0.00 PKD
ROOT
HETATM    1  O   UNL     1     -10.592   7.060  74.392  1.00  0.00    -0.519 OA 
HETATM    2  C   UNL     1      -9.983   6.860  73.075  1.00  0.00    -0.187 C  
HETATM    3  H   UNL     1     -11.105   6.287  74.593  1.00  0.00     0.000 HD 
HETATM    4  O   UNL     1      -9.291   4.564  74.357  1.00  0.00    -0.115 OA 
HETATM    5  P   UNL     1     -11.229   6.820  71.734  1.00  0.00    -0.288 P  
HETATM    6  P   UNL     1      -8.900   5.420  73.069  1.00  0.00    -0.117 P  
HETATM    7  O   UNL     1     -12.039   8.000  72.579  1.00  0.00    -0.338 OA 
HETATM    8  O   UNL     1     -11.993   5.596  72.527  1.00  0.00    -0.258 OA 
HETATM    9  O   UNL     1      -7.438   5.943  73.465  1.00  0.00    -0.092 OA 
HETATM   10  O   UNL     1      -8.854   4.598  71.839  1.00  0.00    -0.120 OA 
HETATM   11  O   UNL     1     -12.282   6.788  70.600  1.00  0.00    -0.386 OA 
ENDROOT
BRANCH   2  12
HETATM   12  C   UNL     1      -9.142   8.125  72.745  1.00  0.00    -0.259 C  
BRANCH  12  13
HETATM   13  N   UNL     1      -8.790   8.405  71.361  1.00  0.00    -0.163 NA 
HETATM   14  C   UNL     1      -9.468   9.328  70.592  1.00  0.00    -0.272 A  
HETATM   15  C   UNL     1      -8.899   9.262  69.343  1.00  0.00    -0.149 A  
HETATM   16  N   UNL     1      -7.895   8.342  69.332  1.00  0.00    -0.102 NA 
HETATM   17  C   UNL     1      -7.866   7.831  70.538  1.00  0.00    -0.096 A  
ENDBRANCH  12  13
ENDBRANCH   2  12
TORSDOF 2
ENDMDL
MODEL      164
REMARK 921   NORMALIZED FREE ENERGY PREDICTED BY IDOCK:   -2.65 KCAL/MOL
REMARK 922        TOTAL FREE ENERGY PREDICTED BY IDOCK:   -3.26 KCAL/MOL
REMARK 923 INTER-LIGAND FREE ENERGY PREDICTED BY IDOCK:   -3.64 KCAL/MOL
REMARK 924 INTRA-LIGAND FREE ENERGY PREDICTED BY IDOCK:    0.38 KCAL/MOL
REMARK 927      BINDING AFFINITY PREDICTED BY RF-SCORE:    0.00 PKD
ROOT
HETATM    1  O   UNL     1      -9.138  13.839  66.224  1.00  0.00    -0.470 OA 
HETATM    2  C   UNL     1      -9.139  12.859  67.311  1.00  0.00    -0.208 C  
HETATM    3  H   UNL     1      -8.499  13.556  65.580  1.00  0.00     0.000 HD 
HETATM    4  O   UNL     1      -9.417  11.260  65.129  1.00  0.00    -0.219 OA 
HETATM    5  P   UNL     1      -7.567  12.863  68.250  1.00  0.00    -0.144 P  
HETATM    6  P   UNL     1      -9.595  11.222  66.714  1.00  0.00    -0.202 P  
HETATM    7  O   UNL     1      -7.556  14.512  68.042  1.00  0.00    -0.111 OA 
HETATM    8  O   UNL     1      -6.764  12.586  66.839  1.00  0.00    -0.037 OA 
HETATM    9  O   UNL     1     -11.188  11.108  66.853  1.00  0.00    -0.295 OA 
HETATM   10  O   UNL     1      -8.926  10.053  67.328  1.00  0.00    -0.134 OA 
HETATM   11  O   UNL     1      -6.239  12.867  69.044  1.00  0.00    -0.082 OA 
ENDROOT
BRANCH   2  12
HETATM   12  C   UNL     1     -10.186  13.322  68.364  1.00  0.00    -0.249 C  
BRANCH  12  13
HETATM   13  N   UNL     1     -10.433  14.745  68.544  1.00  0.00    -0.243 NA 
HETATM   14  C   UNL     1     -10.320  15.371  69.768  1.00  0.00    -0.286 A  
HETATM   15  C   UNL     1     -10.692  16.676  69.555  1.00  0.00    -0.306 A  
HETATM   16  N   UNL     1     -11.015  16.864  68.244  1.00  0.00    -0.349 NA 
HETATM   17  C   UNL     1     -10.874  15.695  67.671  1.00  0.00    -0.307 A  
ENDBRANCH  12  13
ENDBRANCH   2  12
TORSDOF 2
ENDMDL
MODEL      165
REMARK 921   NORMALIZED FREE ENERGY PREDICTED BY IDOCK:   -2.64 KCAL/MOL
REMARK 922        TOTAL FREE ENERGY PREDICTED BY IDOCK:   -3.26 KCAL/MOL
REMARK 923 INTER-LIGAND FREE ENERGY PREDICTED BY IDOCK:   -3.11 KCAL/MOL
REMARK 924 INTRA-LIGAND FREE ENERGY PREDICTED BY IDOCK:   -0.15 KCAL/MOL
REMARK 927      BINDING AFFINITY PREDICTED BY RF-SCORE:    0.00 PKD
ROOT
HETATM    1  O   UNL     1      -8.482  10.893  69.691  1.00  0.00    -0.373 OA 
HETATM    2  C   UNL     1      -9.321   9.949  68.951  1.00  0.00    -0.170 C  
HETATM    3  H   UNL     1      -8.868  11.011  70.551  1.00  0.00     0.000 HD 
HETATM    4  O   UNL     1      -8.897   8.605  71.277  1.00  0.00    -0.169 OA 
HETATM    5  P   UNL     1     -10.976  10.636  68.579  1.00  0.00    -0.285 P  
HETATM    6  P   UNL     1      -9.395   8.352  69.782  1.00  0.00    -0.159 P  
HETATM    7  O   UNL     1     -10.215  12.095  68.343  1.00  0.00    -0.203 OA 
HETATM    8  O   UNL     1     -11.190  10.903  70.190  1.00  0.00    -0.288 OA 
HETATM    9  O   UNL     1      -8.195   7.470  69.191  1.00  0.00    -0.127 OA 
HETATM   10  O   UNL     1     -10.674   7.609  69.732  1.00  0.00    -0.243 OA 
HETATM   11  O   UNL     1     -12.376  11.218  68.263  1.00  0.00    -0.542 OA 
ENDROOT
BRANCH   2  12
HETATM   12  C   UNL     1      -8.688   9.756  67.543  1.00  0.00    -0.125 C  
BRANCH  12  13
HETATM   13  N   UNL     1      -7.330  10.221  67.304  1.00  0.00    -0.089 NA 
HETATM   14  C   UNL     1      -6.220   9.456  67.593  1.00  0.00    -0.054 A  
HETATM   15  C   UNL     1      -5.136  10.247  67.300  1.00  0.00    -0.040 A  
HETATM   16  N   UNL     1      -5.550  11.458  66.833  1.00  0.00    -0.102 NA 
HETATM   17  C   UNL     1      -6.859  11.424  66.867  1.00  0.00    -0.142 A  
ENDBRANCH  12  13
ENDBRANCH   2  12
TORSDOF 2
ENDMDL
MODEL      166
REMARK 921   NORMALIZED FREE ENERGY PREDICTED BY IDOCK:   -2.63 KCAL/MOL
REMARK 922        TOTAL FREE ENERGY PREDICTED BY IDOCK:   -3.25 KCAL/MOL
REMARK 923 INTER-LIGAND FREE ENERGY PREDICTED BY IDOCK:   -2.93 KCAL/MOL
REMARK 924 INTRA-LIGAND FREE ENERGY PREDICTED BY IDOCK:   -0.31 KCAL/MOL
REMARK 927      BINDING AFFINITY PREDICTED BY RF-SCORE:    0.00 PKD
ROOT
HETATM    1  O   UNL     1      -8.278   9.026  66.960  1.00  0.00    -0.108 OA 
HETATM    2  C   UNL     1      -9.405   9.944  66.784  1.00  0.00    -0.151 C  
HETATM    3  H   UNL     1      -7.479   9.516  66.810  1.00  0.00     0.000 HD 
HETATM    4  O   UNL     1      -7.831  11.328  68.516  1.00  0.00    -0.123 OA 
HETATM    5  P   UNL     1      -9.575  10.508  65.051  1.00  0.00    -0.331 P  
HETATM    6  P   UNL     1      -9.327  11.306  67.960  1.00  0.00    -0.178 P  
HETATM    7  O   UNL     1      -9.123   8.972  64.604  1.00  0.00    -0.137 OA 
HETATM    8  O   UNL     1      -8.021  11.050  65.110  1.00  0.00     0.054 OA 
HETATM    9  O   UNL     1     -10.144  10.841  69.258  1.00  0.00    -0.218 OA 
HETATM   10  O   UNL     1      -9.777  12.639  67.501  1.00  0.00    -0.190 OA 
HETATM   11  O   UNL     1      -9.720  10.983  63.585  1.00  0.00    -0.261 OA 
ENDROOT
BRANCH   2  12
HETATM   12  C   UNL     1     -10.714   9.140  67.029  1.00  0.00    -0.118 C  
BRANCH  12  13
HETATM   13  N   UNL     1     -10.629   7.787  67.559  1.00  0.00    -0.262 NA 
HETATM   14  C   UNL     1     -10.662   6.669  66.752  1.00  0.00    -0.259 A  
HETATM   15  C   UNL     1     -10.628   5.593  67.606  1.00  0.00    -0.204 A  
HETATM   16  N   UNL     1     -10.564   6.020  68.898  1.00  0.00    -0.257 NA 
HETATM   17  C   UNL     1     -10.588   7.328  68.843  1.00  0.00    -0.191 A  
ENDBRANCH  12  13
ENDBRANCH   2  12
TORSDOF 2
ENDMDL
MODEL      167
REMARK 921   NORMALIZED FREE ENERGY PREDICTED BY IDOCK:   -2.61 KCAL/MOL
REMARK 922        TOTAL FREE ENERGY PREDICTED BY IDOCK:   -3.22 KCAL/MOL
REMARK 923 INTER-LIGAND FREE ENERGY PREDICTED BY IDOCK:   -3.04 KCAL/MOL
REMARK 924 INTRA-LIGAND FREE ENERGY PREDICTED BY IDOCK:   -0.18 KCAL/MOL
REMARK 927      BINDING AFFINITY PREDICTED BY RF-SCORE:    0.00 PKD
ROOT
HETATM    1  O   UNL     1      -8.482   9.883  67.930  1.00  0.00    -0.120 OA 
HETATM    2  C   UNL     1      -8.070  10.566  66.702  1.00  0.00    -0.127 C  
HETATM    3  H   UNL     1      -7.799   9.263  68.159  1.00  0.00     0.000 HD 
HETATM    4  O   UNL     1      -5.865  10.865  68.265  1.00  0.00    -0.043 OA 
HETATM    5  P   UNL     1      -8.027   9.438  65.262  1.00  0.00    -0.122 P  
HETATM    6  P   UNL     1      -6.525  11.461  66.940  1.00  0.00    -0.118 P  
HETATM    7  O   UNL     1      -9.376   8.713  65.906  1.00  0.00    -0.219 OA 
HETATM    8  O   UNL     1      -6.991   8.467  66.097  1.00  0.00    -0.070 OA 
HETATM    9  O   UNL     1      -6.918  12.940  67.417  1.00  0.00    -0.155 OA 
HETATM   10  O   UNL     1      -5.574  11.505  65.807  1.00  0.00    -0.181 OA 
HETATM   11  O   UNL     1      -7.991   8.484  64.043  1.00  0.00    -0.144 OA 
ENDROOT
BRANCH   2  12
HETATM   12  C   UNL     1      -9.188  11.581  66.329  1.00  0.00    -0.211 C  
BRANCH  12  13
HETATM   13  N   UNL     1     -10.273  11.823  67.269  1.00  0.00    -0.202 NA 
HETATM   14  C   UNL     1     -10.308  12.925  68.098  1.00  0.00    -0.240 A  
HETATM   15  C   UNL     1     -11.430  12.771  68.874  1.00  0.00    -0.305 A  
HETATM   16  N   UNL     1     -12.082  11.623  68.537  1.00  0.00    -0.499 NA 
HETATM   17  C   UNL     1     -11.360  11.067  67.596  1.00  0.00    -0.281 A  
ENDBRANCH  12  13
ENDBRANCH   2  12
TORSDOF 2
ENDMDL
MODEL      168
REMARK 921   NORMALIZED FREE ENERGY PREDICTED BY IDOCK:   -2.60 KCAL/MOL
REMARK 922        TOTAL FREE ENERGY PREDICTED BY IDOCK:   -3.21 KCAL/MOL
REMARK 923 INTER-LIGAND FREE ENERGY PREDICTED BY IDOCK:   -2.95 KCAL/MOL
REMARK 924 INTRA-LIGAND FREE ENERGY PREDICTED BY IDOCK:   -0.26 KCAL/MOL
REMARK 927      BINDING AFFINITY PREDICTED BY RF-SCORE:    0.00 PKD
ROOT
HETATM    1  O   UNL     1      -9.780   9.312  65.027  1.00  0.00    -0.446 OA 
HETATM    2  C   UNL     1      -8.886   9.698  66.121  1.00  0.00    -0.150 C  
HETATM    3  H   UNL     1      -9.795  10.026  64.401  1.00  0.00     0.000 HD 
HETATM    4  O   UNL     1      -7.328  10.169  63.943  1.00  0.00    -0.136 OA 
HETATM    5  P   UNL     1      -9.547  11.099  67.095  1.00  0.00    -0.176 P  
HETATM    6  P   UNL     1      -7.211   9.986  65.523  1.00  0.00    -0.142 P  
HETATM    7  O   UNL     1     -11.049  10.422  66.878  1.00  0.00    -0.170 OA 
HETATM    8  O   UNL     1      -9.639  11.978  65.705  1.00  0.00    -0.241 OA 
HETATM    9  O   UNL     1      -6.439   8.586  65.626  1.00  0.00    -0.055 OA 
HETATM   10  O   UNL     1      -6.430  11.070  66.160  1.00  0.00    -0.128 OA 
HETATM   11  O   UNL     1     -10.106  12.283  67.920  1.00  0.00    -0.190 OA 
ENDROOT
BRANCH   2  12
HETATM   12  C   UNL     1      -8.862   8.528  67.146  1.00  0.00    -0.129 C  
BRANCH  12  13
HETATM   13  N   UNL     1      -9.390   7.229  66.756  1.00  0.00    -0.156 NA 
HETATM   14  C   UNL     1     -10.705   6.867  66.963  1.00  0.00    -0.362 A  
HETATM   15  C   UNL     1     -10.805   5.566  66.535  1.00  0.00    -0.163 A  
HETATM   16  N   UNL     1      -9.602   5.131  66.066  1.00  0.00    -0.159 NA 
HETATM   17  C   UNL     1      -8.773   6.132  66.230  1.00  0.00    -0.143 A  
ENDBRANCH  12  13
ENDBRANCH   2  12
TORSDOF 2
ENDMDL
MODEL      169
REMARK 921   NORMALIZED FREE ENERGY PREDICTED BY IDOCK:   -2.56 KCAL/MOL
REMARK 922        TOTAL FREE ENERGY PREDICTED BY IDOCK:   -3.17 KCAL/MOL
REMARK 923 INTER-LIGAND FREE ENERGY PREDICTED BY IDOCK:   -3.26 KCAL/MOL
REMARK 924 INTRA-LIGAND FREE ENERGY PREDICTED BY IDOCK:    0.09 KCAL/MOL
REMARK 927      BINDING AFFINITY PREDICTED BY RF-SCORE:    0.00 PKD
ROOT
HETATM    1  O   UNL     1     -11.616   6.514  69.509  1.00  0.00    -0.594 OA 
HETATM    2  C   UNL     1     -10.317   6.989  69.990  1.00  0.00    -0.202 C  
HETATM    3  H   UNL     1     -12.269   6.756  70.154  1.00  0.00     0.000 HD 
HETATM    4  O   UNL     1     -11.839   9.232  70.204  1.00  0.00    -0.075 OA 
HETATM    5  P   UNL     1      -9.770   6.106  71.497  1.00  0.00    -0.162 P  
HETATM    6  P   UNL     1     -10.309   8.780  70.184  1.00  0.00    -0.225 P  
HETATM    7  O   UNL     1     -10.440   4.741  70.828  1.00  0.00    -0.160 OA 
HETATM    8  O   UNL     1     -11.176   6.552  72.227  1.00  0.00    -0.249 OA 
HETATM    9  O   UNL     1      -9.814   9.393  68.788  1.00  0.00    -0.156 OA 
HETATM   10  O   UNL     1      -9.539   9.347  71.314  1.00  0.00    -0.241 OA 
HETATM   11  O   UNL     1      -9.306   5.359  72.770  1.00  0.00    -0.139 OA 
ENDROOT
BRANCH   2  12
HETATM   12  C   UNL     1      -9.247   6.592  68.933  1.00  0.00    -0.130 C  
BRANCH  12  13
HETATM   13  N   UNL     1      -9.604   5.659  67.874  1.00  0.00    -0.116 NA 
HETATM   14  C   UNL     1     -10.417   6.009  66.817  1.00  0.00    -0.267 A  
HETATM   15  C   UNL     1     -10.579   4.864  66.076  1.00  0.00    -0.261 A  
HETATM   16  N   UNL     1      -9.884   3.837  66.641  1.00  0.00    -0.122 NA 
HETATM   17  C   UNL     1      -9.332   4.331  67.721  1.00  0.00    -0.160 A  
ENDBRANCH  12  13
ENDBRANCH   2  12
TORSDOF 2
ENDMDL
MODEL      170
REMARK 921   NORMALIZED FREE ENERGY PREDICTED BY IDOCK:   -2.52 KCAL/MOL
REMARK 922        TOTAL FREE ENERGY PREDICTED BY IDOCK:   -3.13 KCAL/MOL
REMARK 923 INTER-LIGAND FREE ENERGY PREDICTED BY IDOCK:   -2.88 KCAL/MOL
REMARK 924 INTRA-LIGAND FREE ENERGY PREDICTED BY IDOCK:   -0.25 KCAL/MOL
REMARK 927      BINDING AFFINITY PREDICTED BY RF-SCORE:    0.00 PKD
ROOT
HETATM    1  O   UNL     1      -9.017   9.187  67.161  1.00  0.00    -0.122 OA 
HETATM    2  C   UNL     1      -9.272   9.149  68.602  1.00  0.00    -0.136 C  
HETATM    3  H   UNL     1      -8.564   9.999  66.969  1.00  0.00     0.000 HD 
HETATM    4  O   UNL     1      -6.613   9.713  68.528  1.00  0.00    -0.052 OA 
HETATM    5  P   UNL     1     -10.466  10.433  69.129  1.00  0.00    -0.256 P  
HETATM    6  P   UNL     1      -7.734   9.195  69.539  1.00  0.00    -0.093 P  
HETATM    7  O   UNL     1     -11.266  10.143  67.702  1.00  0.00    -0.284 OA 
HETATM    8  O   UNL     1      -9.486  11.572  68.456  1.00  0.00    -0.185 OA 
HETATM    9  O   UNL     1      -7.285   7.673  69.761  1.00  0.00    -0.074 OA 
HETATM   10  O   UNL     1      -7.728   9.941  70.817  1.00  0.00    -0.293 OA 
HETATM   11  O   UNL     1     -11.477  11.518  69.574  1.00  0.00    -0.268 OA 
ENDROOT
BRANCH   2  12
HETATM   12  C   UNL     1     -10.015   7.819  68.916  1.00  0.00    -0.182 C  
BRANCH  12  13
HETATM   13  N   UNL     1      -9.990   6.742  67.937  1.00  0.00    -0.136 NA 
HETATM   14  C   UNL     1     -11.069   6.446  67.130  1.00  0.00    -0.341 A  
HETATM   15  C   UNL     1     -10.696   5.343  66.400  1.00  0.00    -0.217 A  
HETATM   16  N   UNL     1      -9.427   4.969  66.729  1.00  0.00    -0.134 NA 
HETATM   17  C   UNL     1      -9.040   5.804  67.661  1.00  0.00    -0.106 A  
ENDBRANCH  12  13
ENDBRANCH   2  12
TORSDOF 2
ENDMDL
MODEL      171
REMARK 921   NORMALIZED FREE ENERGY PREDICTED BY IDOCK:   -2.49 KCAL/MOL
REMARK 922        TOTAL FREE ENERGY PREDICTED BY IDOCK:   -3.09 KCAL/MOL
REMARK 923 INTER-LIGAND FREE ENERGY PREDICTED BY IDOCK:   -2.78 KCAL/MOL
REMARK 924 INTRA-LIGAND FREE ENERGY PREDICTED BY IDOCK:   -0.31 KCAL/MOL
REMARK 927      BINDING AFFINITY PREDICTED BY RF-SCORE:    0.00 PKD
ROOT
HETATM    1  O   UNL     1      -9.859   6.066  71.936  1.00  0.00    -0.161 OA 
HETATM    2  C   UNL     1      -9.969   7.300  71.156  1.00  0.00    -0.186 C  
HETATM    3  H   UNL     1     -10.647   5.557  71.784  1.00  0.00     0.000 HD 
HETATM    4  O   UNL     1     -10.515   5.411  69.278  1.00  0.00    -0.256 OA 
HETATM    5  P   UNL     1     -11.302   8.393  71.771  1.00  0.00    -0.354 P  
HETATM    6  P   UNL     1     -10.106   6.949  69.395  1.00  0.00    -0.177 P  
HETATM    7  O   UNL     1     -10.870   7.905  73.300  1.00  0.00    -0.339 OA 
HETATM    8  O   UNL     1     -12.365   7.150  71.574  1.00  0.00    -0.329 OA 
HETATM    9  O   UNL     1      -8.613   6.927  68.812  1.00  0.00    -0.124 OA 
HETATM   10  O   UNL     1     -10.978   7.827  68.583  1.00  0.00    -0.018 OA 
HETATM   11  O   UNL     1     -12.429   9.318  72.291  1.00  0.00    -0.360 OA 
ENDROOT
BRANCH   2  12
HETATM   12  C   UNL     1      -8.679   8.133  71.406  1.00  0.00    -0.145 C  
BRANCH  12  13
HETATM   13  N   UNL     1      -7.560   7.520  72.106  1.00  0.00    -0.079 NA 
HETATM   14  C   UNL     1      -7.253   7.813  73.418  1.00  0.00    -0.101 A  
HETATM   15  C   UNL     1      -6.111   7.104  73.700  1.00  0.00    -0.058 A  
HETATM   16  N   UNL     1      -5.724   6.382  72.611  1.00  0.00    -0.037 NA 
HETATM   17  C   UNL     1      -6.590   6.666  71.670  1.00  0.00    -0.054 A  
ENDBRANCH  12  13
ENDBRANCH   2  12
TORSDOF 2
ENDMDL
MODEL      172
REMARK 921   NORMALIZED FREE ENERGY PREDICTED BY IDOCK:   -2.49 KCAL/MOL
REMARK 922        TOTAL FREE ENERGY PREDICTED BY IDOCK:   -3.09 KCAL/MOL
REMARK 923 INTER-LIGAND FREE ENERGY PREDICTED BY IDOCK:   -2.88 KCAL/MOL
REMARK 924 INTRA-LIGAND FREE ENERGY PREDICTED BY IDOCK:   -0.21 KCAL/MOL
REMARK 927      BINDING AFFINITY PREDICTED BY RF-SCORE:    0.00 PKD
ROOT
HETATM    1  O   UNL     1      -7.212   9.980  67.426  1.00  0.00    -0.084 OA 
HETATM    2  C   UNL     1      -7.642  10.940  68.443  1.00  0.00    -0.104 C  
HETATM    3  H   UNL     1      -6.351  10.243  67.125  1.00  0.00     0.000 HD 
HETATM    4  O   UNL     1      -5.170  10.250  69.344  1.00  0.00    -0.039 OA 
HETATM    5  P   UNL     1      -7.930  12.608  67.746  1.00  0.00    -0.188 P  
HETATM    6  P   UNL     1      -6.512  10.952  69.847  1.00  0.00    -0.129 P  
HETATM    7  O   UNL     1      -8.540  11.840  66.405  1.00  0.00    -0.179 OA 
HETATM    8  O   UNL     1      -6.388  12.595  67.168  1.00  0.00    -0.195 OA 
HETATM    9  O   UNL     1      -7.066   9.871  70.893  1.00  0.00    -0.323 OA 
HETATM   10  O   UNL     1      -6.255  12.249  70.513  1.00  0.00    -0.193 OA 
HETATM   11  O   UNL     1      -8.175  14.018  67.157  1.00  0.00    -0.182 OA 
ENDROOT
BRANCH   2  12
HETATM   12  C   UNL     1      -9.053  10.509  68.936  1.00  0.00    -0.177 C  
BRANCH  12  13
HETATM   13  N   UNL     1      -9.635   9.273  68.433  1.00  0.00    -0.146 NA 
HETATM   14  C   UNL     1      -9.577   8.085  69.132  1.00  0.00    -0.156 A  
HETATM   15  C   UNL     1     -10.163   7.146  68.319  1.00  0.00    -0.184 A  
HETATM   16  N   UNL     1     -10.584   7.724  67.159  1.00  0.00    -0.343 NA 
HETATM   17  C   UNL     1     -10.237   8.985  67.243  1.00  0.00    -0.256 A  
ENDBRANCH  12  13
ENDBRANCH   2  12
TORSDOF 2
ENDMDL
MODEL      173
REMARK 921   NORMALIZED FREE ENERGY PREDICTED BY IDOCK:   -2.47 KCAL/MOL
REMARK 922        TOTAL FREE ENERGY PREDICTED BY IDOCK:   -3.07 KCAL/MOL
REMARK 923 INTER-LIGAND FREE ENERGY PREDICTED BY IDOCK:   -3.20 KCAL/MOL
REMARK 924 INTRA-LIGAND FREE ENERGY PREDICTED BY IDOCK:    0.13 KCAL/MOL
REMARK 927      BINDING AFFINITY PREDICTED BY RF-SCORE:    0.00 PKD
ROOT
HETATM    1  O   UNL     1     -11.321   7.147  68.533  1.00  0.00    -0.462 OA 
HETATM    2  C   UNL     1     -10.443   8.277  68.840  1.00  0.00    -0.191 C  
HETATM    3  H   UNL     1     -11.138   6.459  69.161  1.00  0.00     0.000 HD 
HETATM    4  O   UNL     1     -11.552   7.763  71.270  1.00  0.00    -0.267 OA 
HETATM    5  P   UNL     1      -8.681   7.889  68.537  1.00  0.00    -0.129 P  
HETATM    6  P   UNL     1     -10.748   8.907  70.501  1.00  0.00    -0.257 P  
HETATM    7  O   UNL     1      -9.195   7.019  67.218  1.00  0.00    -0.125 OA 
HETATM    8  O   UNL     1      -8.823   6.605  69.558  1.00  0.00    -0.137 OA 
HETATM    9  O   UNL     1     -11.866  10.046  70.363  1.00  0.00    -0.266 OA 
HETATM   10  O   UNL     1      -9.586   9.397  71.275  1.00  0.00    -0.241 OA 
HETATM   11  O   UNL     1      -7.190   7.561  68.279  1.00  0.00    -0.088 OA 
ENDROOT
BRANCH   2  12
HETATM   12  C   UNL     1     -10.745   9.404  67.811  1.00  0.00    -0.229 C  
BRANCH  12  13
HETATM   13  N   UNL     1      -9.710  10.379  67.500  1.00  0.00    -0.167 NA 
HETATM   14  C   UNL     1      -9.516  11.522  68.248  1.00  0.00    -0.189 A  
HETATM   15  C   UNL     1      -8.512  12.215  67.615  1.00  0.00    -0.163 A  
HETATM   16  N   UNL     1      -8.084  11.527  66.520  1.00  0.00    -0.147 NA 
HETATM   17  C   UNL     1      -8.828  10.450  66.462  1.00  0.00    -0.138 A  
ENDBRANCH  12  13
ENDBRANCH   2  12
TORSDOF 2
ENDMDL
MODEL      174
REMARK 921   NORMALIZED FREE ENERGY PREDICTED BY IDOCK:   -2.45 KCAL/MOL
REMARK 922        TOTAL FREE ENERGY PREDICTED BY IDOCK:   -3.05 KCAL/MOL
REMARK 923 INTER-LIGAND FREE ENERGY PREDICTED BY IDOCK:   -2.81 KCAL/MOL
REMARK 924 INTRA-LIGAND FREE ENERGY PREDICTED BY IDOCK:   -0.24 KCAL/MOL
REMARK 927      BINDING AFFINITY PREDICTED BY RF-SCORE:    0.00 PKD
ROOT
HETATM    1  O   UNL     1      -9.153  11.065  69.044  1.00  0.00    -0.301 OA 
HETATM    2  C   UNL     1     -10.556  10.805  68.717  1.00  0.00    -0.200 C  
HETATM    3  H   UNL     1      -9.130  11.517  69.879  1.00  0.00     0.000 HD 
HETATM    4  O   UNL     1     -10.391   9.829  71.250  1.00  0.00    -0.201 OA 
HETATM    5  P   UNL     1     -11.489  12.345  68.388  1.00  0.00    -0.354 P  
HETATM    6  P   UNL     1     -11.336   9.766  69.965  1.00  0.00    -0.143 P  
HETATM    7  O   UNL     1     -10.111  12.913  67.653  1.00  0.00    -0.214 OA 
HETATM    8  O   UNL     1     -11.037  12.896  69.873  1.00  0.00     0.057 OA 
HETATM    9  O   UNL     1     -11.132   8.248  69.493  1.00  0.00    -0.112 OA 
HETATM   10  O   UNL     1     -12.754  10.032  70.295  1.00  0.00    -0.122 OA 
HETATM   11  O   UNL     1     -12.278  13.648  68.108  1.00  0.00    -0.322 OA 
ENDROOT
BRANCH   2  12
HETATM   12  C   UNL     1     -10.594  10.064  67.349  1.00  0.00    -0.271 C  
BRANCH  12  13
HETATM   13  N   UNL     1      -9.342   9.680  66.714  1.00  0.00    -0.148 NA 
HETATM   14  C   UNL     1      -8.759   8.445  66.906  1.00  0.00    -0.130 A  
HETATM   15  C   UNL     1      -7.575   8.480  66.209  1.00  0.00    -0.090 A  
HETATM   16  N   UNL     1      -7.427   9.687  65.594  1.00  0.00    -0.098 NA 
HETATM   17  C   UNL     1      -8.481  10.389  65.929  1.00  0.00    -0.156 A  
ENDBRANCH  12  13
ENDBRANCH   2  12
TORSDOF 2
ENDMDL
MODEL      175
REMARK 921   NORMALIZED FREE ENERGY PREDICTED BY IDOCK:   -2.44 KCAL/MOL
REMARK 922        TOTAL FREE ENERGY PREDICTED BY IDOCK:   -3.04 KCAL/MOL
REMARK 923 INTER-LIGAND FREE ENERGY PREDICTED BY IDOCK:   -3.20 KCAL/MOL
REMARK 924 INTRA-LIGAND FREE ENERGY PREDICTED BY IDOCK:    0.17 KCAL/MOL
REMARK 927      BINDING AFFINITY PREDICTED BY RF-SCORE:    0.00 PKD
ROOT
HETATM    1  O   UNL     1     -10.460   8.637  66.458  1.00  0.00    -0.272 OA 
HETATM    2  C   UNL     1      -9.645   9.662  67.113  1.00  0.00    -0.166 C  
HETATM    3  H   UNL     1     -11.231   9.064  66.102  1.00  0.00     0.000 HD 
HETATM    4  O   UNL     1     -10.078  10.779  64.672  1.00  0.00    -0.297 OA 
HETATM    5  P   UNL     1     -10.464  10.356  68.596  1.00  0.00    -0.227 P  
HETATM    6  P   UNL     1      -9.124  10.928  65.942  1.00  0.00    -0.202 P  
HETATM    7  O   UNL     1     -11.028   8.821  68.889  1.00  0.00    -0.071 OA 
HETATM    8  O   UNL     1     -11.756  10.753  67.655  1.00  0.00    -0.538 OA 
HETATM    9  O   UNL     1      -7.717  10.449  65.343  1.00  0.00    -0.144 OA 
HETATM   10  O   UNL     1      -9.045  12.324  66.427  1.00  0.00    -0.211 OA 
HETATM   11  O   UNL     1     -11.156  10.943  69.850  1.00  0.00    -0.266 OA 
ENDROOT
BRANCH   2  12
HETATM   12  C   UNL     1      -8.384   8.963  67.695  1.00  0.00    -0.110 C  
BRANCH  12  13
HETATM   13  N   UNL     1      -7.727   9.535  68.860  1.00  0.00    -0.075 NA 
HETATM   14  C   UNL     1      -6.996  10.704  68.803  1.00  0.00    -0.068 A  
HETATM   15  C   UNL     1      -6.481  10.883  70.065  1.00  0.00    -0.151 A  
HETATM   16  N   UNL     1      -6.884   9.872  70.885  1.00  0.00    -0.323 NA 
HETATM   17  C   UNL     1      -7.605   9.073  70.138  1.00  0.00    -0.082 A  
ENDBRANCH  12  13
ENDBRANCH   2  12
TORSDOF 2
ENDMDL
MODEL      176
REMARK 921   NORMALIZED FREE ENERGY PREDICTED BY IDOCK:   -2.44 KCAL/MOL
REMARK 922        TOTAL FREE ENERGY PREDICTED BY IDOCK:   -3.03 KCAL/MOL
REMARK 923 INTER-LIGAND FREE ENERGY PREDICTED BY IDOCK:   -3.24 KCAL/MOL
REMARK 924 INTRA-LIGAND FREE ENERGY PREDICTED BY IDOCK:    0.21 KCAL/MOL
REMARK 927      BINDING AFFINITY PREDICTED BY RF-SCORE:    0.00 PKD
ROOT
HETATM    1  O   UNL     1     -11.271   5.454  72.202  1.00  0.00    -0.217 OA 
HETATM    2  C   UNL     1     -10.028   6.184  71.948  1.00  0.00    -0.164 C  
HETATM    3  H   UNL     1     -11.781   5.463  71.401  1.00  0.00     0.000 HD 
HETATM    4  O   UNL     1     -10.077   4.436  69.866  1.00  0.00    -0.222 OA 
HETATM    5  P   UNL     1     -10.319   7.967  71.654  1.00  0.00    -0.241 P  
HETATM    6  P   UNL     1      -9.070   5.403  70.637  1.00  0.00    -0.149 P  
HETATM    7  O   UNL     1     -11.505   7.870  72.813  1.00  0.00    -0.390 OA 
HETATM    8  O   UNL     1     -11.348   7.563  70.433  1.00  0.00    -0.275 OA 
HETATM    9  O   UNL     1      -8.094   4.349  71.346  1.00  0.00    -0.080 OA 
HETATM   10  O   UNL     1      -8.318   6.284  69.715  1.00  0.00    -0.122 OA 
HETATM   11  O   UNL     1     -10.564   9.476  71.406  1.00  0.00    -0.336 OA 
ENDROOT
BRANCH   2  12
HETATM   12  C   UNL     1      -9.193   6.169  73.260  1.00  0.00    -0.131 C  
BRANCH  12  13
HETATM   13  N   UNL     1      -8.204   7.212  73.487  1.00  0.00    -0.110 NA 
HETATM   14  C   UNL     1      -7.042   7.309  72.750  1.00  0.00    -0.068 A  
HETATM   15  C   UNL     1      -6.343   8.359  73.293  1.00  0.00    -0.103 A  
HETATM   16  N   UNL     1      -7.046   8.909  74.323  1.00  0.00    -0.400 NA 
HETATM   17  C   UNL     1      -8.138   8.194  74.431  1.00  0.00    -0.234 A  
ENDBRANCH  12  13
ENDBRANCH   2  12
TORSDOF 2
ENDMDL
MODEL      177
REMARK 921   NORMALIZED FREE ENERGY PREDICTED BY IDOCK:   -2.43 KCAL/MOL
REMARK 922        TOTAL FREE ENERGY PREDICTED BY IDOCK:   -3.03 KCAL/MOL
REMARK 923 INTER-LIGAND FREE ENERGY PREDICTED BY IDOCK:   -3.52 KCAL/MOL
REMARK 924 INTRA-LIGAND FREE ENERGY PREDICTED BY IDOCK:    0.49 KCAL/MOL
REMARK 927      BINDING AFFINITY PREDICTED BY RF-SCORE:    0.00 PKD
ROOT
HETATM    1  O   UNL     1     -11.401   5.760  71.638  1.00  0.00    -0.242 OA 
HETATM    2  C   UNL     1     -10.265   6.499  71.083  1.00  0.00    -0.192 C  
HETATM    3  H   UNL     1     -11.121   4.864  71.781  1.00  0.00     0.000 HD 
HETATM    4  O   UNL     1      -9.147   5.325  73.267  1.00  0.00    -0.129 OA 
HETATM    5  P   UNL     1      -9.817   5.925  69.404  1.00  0.00    -0.188 P  
HETATM    6  P   UNL     1      -8.868   6.498  72.221  1.00  0.00    -0.132 P  
HETATM    7  O   UNL     1     -11.445   5.735  69.135  1.00  0.00    -0.044 OA 
HETATM    8  O   UNL     1      -9.644   4.402  70.008  1.00  0.00    -0.166 OA 
HETATM    9  O   UNL     1      -9.028   7.796  73.148  1.00  0.00    -0.165 OA 
HETATM   10  O   UNL     1      -7.508   6.425  71.642  1.00  0.00    -0.090 OA 
HETATM   11  O   UNL     1      -9.438   5.440  67.983  1.00  0.00    -0.111 OA 
ENDROOT
BRANCH   2  12
HETATM   12  C   UNL     1     -10.724   7.967  70.849  1.00  0.00    -0.221 C  
BRANCH  12  13
HETATM   13  N   UNL     1     -12.031   8.389  71.331  1.00  0.00    -0.291 NA 
HETATM   14  C   UNL     1     -12.299   9.687  71.712  1.00  0.00    -0.392 A  
HETATM   15  C   UNL     1     -13.596   9.681  72.166  1.00  0.00    -0.389 A  
HETATM   16  N   UNL     1     -14.125   8.430  72.061  1.00  0.00    -0.416 NA 
HETATM   17  C   UNL     1     -13.166   7.676  71.583  1.00  0.00    -0.352 A  
ENDBRANCH  12  13
ENDBRANCH   2  12
TORSDOF 2
ENDMDL
MODEL      178
REMARK 921   NORMALIZED FREE ENERGY PREDICTED BY IDOCK:   -2.42 KCAL/MOL
REMARK 922        TOTAL FREE ENERGY PREDICTED BY IDOCK:   -3.02 KCAL/MOL
REMARK 923 INTER-LIGAND FREE ENERGY PREDICTED BY IDOCK:   -3.75 KCAL/MOL
REMARK 924 INTRA-LIGAND FREE ENERGY PREDICTED BY IDOCK:    0.73 KCAL/MOL
REMARK 927      BINDING AFFINITY PREDICTED BY RF-SCORE:    0.00 PKD
ROOT
HETATM    1  O   UNL     1      -7.978  14.960  69.815  1.00  0.00    -0.406 OA 
HETATM    2  C   UNL     1      -8.426  14.855  68.426  1.00  0.00    -0.153 C  
HETATM    3  H   UNL     1      -7.080  15.269  69.807  1.00  0.00     0.000 HD 
HETATM    4  O   UNL     1      -7.428  17.384  68.494  1.00  0.00    -0.229 OA 
HETATM    5  P   UNL     1      -7.538  13.544  67.507  1.00  0.00    -0.099 P  
HETATM    6  P   UNL     1      -8.367  16.455  67.599  1.00  0.00    -0.171 P  
HETATM    7  O   UNL     1      -7.582  12.659  68.913  1.00  0.00    -0.062 OA 
HETATM    8  O   UNL     1      -6.117  14.278  67.903  1.00  0.00    -0.138 OA 
HETATM    9  O   UNL     1      -9.799  17.140  67.819  1.00  0.00    -0.261 OA 
HETATM   10  O   UNL     1      -7.984  16.477  66.169  1.00  0.00    -0.312 OA 
HETATM   11  O   UNL     1      -6.788  12.435  66.731  1.00  0.00     0.030 OA 
ENDROOT
BRANCH   2  12
HETATM   12  C   UNL     1      -9.897  14.349  68.440  1.00  0.00    -0.234 C  
BRANCH  12  13
HETATM   13  N   UNL     1     -10.545  14.012  67.181  1.00  0.00    -0.273 NA 
HETATM   14  C   UNL     1     -11.907  13.821  67.074  1.00  0.00    -0.410 A  
HETATM   15  C   UNL     1     -12.130  13.456  65.768  1.00  0.00    -0.436 A  
HETATM   16  N   UNL     1     -10.954  13.430  65.080  1.00  0.00    -0.303 NA 
HETATM   17  C   UNL     1     -10.026  13.743  65.949  1.00  0.00    -0.293 A  
ENDBRANCH  12  13
ENDBRANCH   2  12
TORSDOF 2
ENDMDL
MODEL      179
REMARK 921   NORMALIZED FREE ENERGY PREDICTED BY IDOCK:   -2.42 KCAL/MOL
REMARK 922        TOTAL FREE ENERGY PREDICTED BY IDOCK:   -3.02 KCAL/MOL
REMARK 923 INTER-LIGAND FREE ENERGY PREDICTED BY IDOCK:   -2.72 KCAL/MOL
REMARK 924 INTRA-LIGAND FREE ENERGY PREDICTED BY IDOCK:   -0.30 KCAL/MOL
REMARK 927      BINDING AFFINITY PREDICTED BY RF-SCORE:    0.00 PKD
ROOT
HETATM    1  O   UNL     1     -10.858   5.240  71.564  1.00  0.00    -0.194 OA 
HETATM    2  C   UNL     1      -9.410   5.265  71.351  1.00  0.00    -0.148 C  
HETATM    3  H   UNL     1     -11.108   4.343  71.751  1.00  0.00     0.000 HD 
HETATM    4  O   UNL     1      -9.596   3.939  73.718  1.00  0.00    -0.105 OA 
HETATM    5  P   UNL     1      -8.917   4.367  69.834  1.00  0.00    -0.115 P  
HETATM    6  P   UNL     1      -8.525   4.705  72.817  1.00  0.00    -0.111 P  
HETATM    7  O   UNL     1     -10.301   4.970  69.139  1.00  0.00    -0.193 OA 
HETATM    8  O   UNL     1      -9.681   3.030  70.418  1.00  0.00    -0.141 OA 
HETATM    9  O   UNL     1      -8.234   6.007  73.704  1.00  0.00    -0.112 OA 
HETATM   10  O   UNL     1      -7.290   3.915  72.615  1.00  0.00    -0.059 OA 
HETATM   11  O   UNL     1      -8.500   3.609  68.550  1.00  0.00    -0.083 OA 
ENDROOT
BRANCH   2  12
HETATM   12  C   UNL     1      -9.002   6.735  71.046  1.00  0.00    -0.145 C  
BRANCH  12  13
HETATM   13  N   UNL     1     -10.003   7.787  71.147  1.00  0.00    -0.176 NA 
HETATM   14  C   UNL     1     -10.690   8.268  70.053  1.00  0.00    -0.239 A  
HETATM   15  C   UNL     1     -11.482   9.284  70.528  1.00  0.00    -0.248 A  
HETATM   16  N   UNL     1     -11.308   9.427  71.872  1.00  0.00    -0.315 NA 
HETATM   17  C   UNL     1     -10.407   8.540  72.211  1.00  0.00    -0.332 A  
ENDBRANCH  12  13
ENDBRANCH   2  12
TORSDOF 2
ENDMDL
MODEL      180
REMARK 921   NORMALIZED FREE ENERGY PREDICTED BY IDOCK:   -2.41 KCAL/MOL
REMARK 922        TOTAL FREE ENERGY PREDICTED BY IDOCK:   -3.00 KCAL/MOL
REMARK 923 INTER-LIGAND FREE ENERGY PREDICTED BY IDOCK:   -3.14 KCAL/MOL
REMARK 924 INTRA-LIGAND FREE ENERGY PREDICTED BY IDOCK:    0.14 KCAL/MOL
REMARK 927      BINDING AFFINITY PREDICTED BY RF-SCORE:    0.00 PKD
ROOT
HETATM    1  O   UNL     1      -9.845   4.690  71.012  1.00  0.00    -0.174 OA 
HETATM    2  C   UNL     1      -9.970   6.134  71.213  1.00  0.00    -0.182 C  
HETATM    3  H   UNL     1      -9.713   4.290  71.864  1.00  0.00     0.000 HD 
HETATM    4  O   UNL     1     -11.771   5.170  73.008  1.00  0.00    -0.303 OA 
HETATM    5  P   UNL     1      -8.410   6.892  71.798  1.00  0.00    -0.106 P  
HETATM    6  P   UNL     1     -11.379   6.527  72.266  1.00  0.00    -0.283 P  
HETATM    7  O   UNL     1      -7.624   5.825  70.795  1.00  0.00    -0.087 OA 
HETATM    8  O   UNL     1      -8.415   5.841  73.066  1.00  0.00    -0.118 OA 
HETATM    9  O   UNL     1     -12.636   6.735  71.294  1.00  0.00    -0.353 OA 
HETATM   10  O   UNL     1     -11.241   7.663  73.204  1.00  0.00    -0.391 OA 
HETATM   11  O   UNL     1      -7.090   7.533  72.292  1.00  0.00    -0.065 OA 
ENDROOT
BRANCH   2  12
HETATM   12  C   UNL     1     -10.185   6.789  69.818  1.00  0.00    -0.187 C  
BRANCH  12  13
HETATM   13  N   UNL     1      -9.866   8.197  69.636  1.00  0.00    -0.181 NA 
HETATM   14  C   UNL     1     -10.745   9.208  69.965  1.00  0.00    -0.232 A  
HETATM   15  C   UNL     1     -10.125  10.376  69.592  1.00  0.00    -0.190 A  
HETATM   16  N   UNL     1      -8.900  10.109  69.060  1.00  0.00    -0.155 NA 
HETATM   17  C   UNL     1      -8.780   8.804  69.078  1.00  0.00    -0.133 A  
ENDBRANCH  12  13
ENDBRANCH   2  12
TORSDOF 2
ENDMDL
MODEL      181
REMARK 921   NORMALIZED FREE ENERGY PREDICTED BY IDOCK:   -2.39 KCAL/MOL
REMARK 922        TOTAL FREE ENERGY PREDICTED BY IDOCK:   -2.98 KCAL/MOL
REMARK 923 INTER-LIGAND FREE ENERGY PREDICTED BY IDOCK:   -2.66 KCAL/MOL
REMARK 924 INTRA-LIGAND FREE ENERGY PREDICTED BY IDOCK:   -0.31 KCAL/MOL
REMARK 927      BINDING AFFINITY PREDICTED BY RF-SCORE:    0.00 PKD
ROOT
HETATM    1  O   UNL     1     -10.133   7.957  69.913  1.00  0.00    -0.190 OA 
HETATM    2  C   UNL     1      -9.456   6.713  69.541  1.00  0.00    -0.147 C  
HETATM    3  H   UNL     1     -11.068   7.789  69.913  1.00  0.00     0.000 HD 
HETATM    4  O   UNL     1     -11.100   5.872  71.538  1.00  0.00    -0.270 OA 
HETATM    5  P   UNL     1      -9.797   6.229  67.809  1.00  0.00    -0.140 P  
HETATM    6  P   UNL     1      -9.814   5.399  70.721  1.00  0.00    -0.215 P  
HETATM    7  O   UNL     1      -9.741   7.849  67.443  1.00  0.00    -0.144 OA 
HETATM    8  O   UNL     1     -11.407   6.266  68.152  1.00  0.00    -0.278 OA 
HETATM    9  O   UNL     1      -8.676   5.470  71.847  1.00  0.00    -0.133 OA 
HETATM   10  O   UNL     1      -9.954   4.022  70.196  1.00  0.00    -0.188 OA 
HETATM   11  O   UNL     1     -10.084   5.820  66.344  1.00  0.00    -0.169 OA 
ENDROOT
BRANCH   2  12
HETATM   12  C   UNL     1      -7.926   6.989  69.542  1.00  0.00    -0.125 C  
BRANCH  12  13
HETATM   13  N   UNL     1      -7.433   8.265  70.039  1.00  0.00    -0.063 NA 
HETATM   14  C   UNL     1      -7.108   9.314  69.203  1.00  0.00    -0.062 A  
HETATM   15  C   UNL     1      -6.623  10.305  70.021  1.00  0.00    -0.127 A  
HETATM   16  N   UNL     1      -6.653   9.899  71.321  1.00  0.00    -0.326 NA 
HETATM   17  C   UNL     1      -7.118   8.674  71.301  1.00  0.00    -0.085 A  
ENDBRANCH  12  13
ENDBRANCH   2  12
TORSDOF 2
ENDMDL
MODEL      182
REMARK 921   NORMALIZED FREE ENERGY PREDICTED BY IDOCK:   -2.38 KCAL/MOL
REMARK 922        TOTAL FREE ENERGY PREDICTED BY IDOCK:   -2.96 KCAL/MOL
REMARK 923 INTER-LIGAND FREE ENERGY PREDICTED BY IDOCK:   -3.10 KCAL/MOL
REMARK 924 INTRA-LIGAND FREE ENERGY PREDICTED BY IDOCK:    0.14 KCAL/MOL
REMARK 927      BINDING AFFINITY PREDICTED BY RF-SCORE:    0.00 PKD
ROOT
HETATM    1  O   UNL     1     -10.489   9.839  67.020  1.00  0.00    -0.238 OA 
HETATM    2  C   UNL     1      -9.547  10.887  66.624  1.00  0.00    -0.185 C  
HETATM    3  H   UNL     1     -10.763   9.384  66.232  1.00  0.00     0.000 HD 
HETATM    4  O   UNL     1      -8.495   8.706  65.387  1.00  0.00    -0.153 OA 
HETATM    5  P   UNL     1     -10.349  12.203  65.636  1.00  0.00    -0.273 P  
HETATM    6  P   UNL     1      -8.095  10.190  65.817  1.00  0.00    -0.153 P  
HETATM    7  O   UNL     1     -11.672  12.008  66.621  1.00  0.00    -0.522 OA 
HETATM    8  O   UNL     1     -10.853  11.050  64.573  1.00  0.00    -0.313 OA 
HETATM    9  O   UNL     1      -7.018   9.909  66.971  1.00  0.00    -0.086 OA 
HETATM   10  O   UNL     1      -7.491  10.956  64.704  1.00  0.00     0.205 OA 
HETATM   11  O   UNL     1     -11.027  13.316  64.801  1.00  0.00    -0.316 OA 
ENDROOT
BRANCH   2  12
HETATM   12  C   UNL     1      -9.098  11.631  67.914  1.00  0.00    -0.171 C  
BRANCH  12  13
HETATM   13  N   UNL     1      -8.693  13.027  67.827  1.00  0.00    -0.176 NA 
HETATM   14  C   UNL     1      -7.415  13.410  67.478  1.00  0.00    -0.162 A  
HETATM   15  C   UNL     1      -7.399  14.781  67.570  1.00  0.00    -0.201 A  
HETATM   16  N   UNL     1      -8.624  15.241  67.951  1.00  0.00    -0.150 NA 
HETATM   17  C   UNL     1      -9.368  14.176  68.119  1.00  0.00    -0.206 A  
ENDBRANCH  12  13
ENDBRANCH   2  12
TORSDOF 2
ENDMDL
MODEL      183
REMARK 921   NORMALIZED FREE ENERGY PREDICTED BY IDOCK:   -2.37 KCAL/MOL
REMARK 922        TOTAL FREE ENERGY PREDICTED BY IDOCK:   -2.96 KCAL/MOL
REMARK 923 INTER-LIGAND FREE ENERGY PREDICTED BY IDOCK:   -2.64 KCAL/MOL
REMARK 924 INTRA-LIGAND FREE ENERGY PREDICTED BY IDOCK:   -0.32 KCAL/MOL
REMARK 927      BINDING AFFINITY PREDICTED BY RF-SCORE:    0.00 PKD
ROOT
HETATM    1  O   UNL     1      -9.768   4.770  68.897  1.00  0.00    -0.156 OA 
HETATM    2  C   UNL     1      -9.081   6.061  68.840  1.00  0.00    -0.121 C  
HETATM    3  H   UNL     1      -9.593   4.314  68.082  1.00  0.00     0.000 HD 
HETATM    4  O   UNL     1      -7.082   4.343  68.172  1.00  0.00    -0.058 OA 
HETATM    5  P   UNL     1      -9.795   7.173  67.573  1.00  0.00    -0.180 P  
HETATM    6  P   UNL     1      -7.301   5.845  68.662  1.00  0.00    -0.087 P  
HETATM    7  O   UNL     1     -11.277   6.555  68.000  1.00  0.00    -0.281 OA 
HETATM    8  O   UNL     1      -9.527   6.003  66.445  1.00  0.00    -0.156 OA 
HETATM    9  O   UNL     1      -6.693   5.791  70.144  1.00  0.00    -0.045 OA 
HETATM   10  O   UNL     1      -6.569   6.823  67.826  1.00  0.00    -0.053 OA 
HETATM   11  O   UNL     1     -10.399   8.113  66.503  1.00  0.00    -0.273 OA 
ENDROOT
BRANCH   2  12
HETATM   12  C   UNL     1      -9.367   6.808  70.174  1.00  0.00    -0.159 C  
BRANCH  12  13
HETATM   13  N   UNL     1     -10.058   6.108  71.247  1.00  0.00    -0.185 NA 
HETATM   14  C   UNL     1     -11.389   6.322  71.538  1.00  0.00    -0.296 A  
HETATM   15  C   UNL     1     -11.659   5.545  72.639  1.00  0.00    -0.232 A  
HETATM   16  N   UNL     1     -10.543   4.861  73.017  1.00  0.00    -0.206 NA 
HETATM   17  C   UNL     1      -9.600   5.232  72.187  1.00  0.00    -0.151 A  
ENDBRANCH  12  13
ENDBRANCH   2  12
TORSDOF 2
ENDMDL
MODEL      184
REMARK 921   NORMALIZED FREE ENERGY PREDICTED BY IDOCK:   -2.31 KCAL/MOL
REMARK 922        TOTAL FREE ENERGY PREDICTED BY IDOCK:   -2.89 KCAL/MOL
REMARK 923 INTER-LIGAND FREE ENERGY PREDICTED BY IDOCK:   -3.42 KCAL/MOL
REMARK 924 INTRA-LIGAND FREE ENERGY PREDICTED BY IDOCK:    0.53 KCAL/MOL
REMARK 927      BINDING AFFINITY PREDICTED BY RF-SCORE:    0.00 PKD
ROOT
HETATM    1  O   UNL     1      -9.123   7.094  69.882  1.00  0.00    -0.142 OA 
HETATM    2  C   UNL     1      -9.747   6.698  71.146  1.00  0.00    -0.174 C  
HETATM    3  H   UNL     1      -9.263   8.026  69.771  1.00  0.00     0.000 HD 
HETATM    4  O   UNL     1      -8.228   8.817  71.920  1.00  0.00    -0.292 OA 
HETATM    5  P   UNL     1     -11.570   6.847  71.098  1.00  0.00    -0.355 P  
HETATM    6  P   UNL     1      -9.008   7.570  72.539  1.00  0.00    -0.156 P  
HETATM    7  O   UNL     1     -11.478   6.325  69.523  1.00  0.00    -0.428 OA 
HETATM    8  O   UNL     1     -11.395   8.431  70.681  1.00  0.00    -0.263 OA 
HETATM    9  O   UNL     1      -7.795   6.661  73.061  1.00  0.00    -0.099 OA 
HETATM   10  O   UNL     1      -9.896   7.959  73.657  1.00  0.00    -0.260 OA 
HETATM   11  O   UNL     1     -13.113   6.972  71.056  1.00  0.00    -0.302 OA 
ENDROOT
BRANCH   2  12
HETATM   12  C   UNL     1      -9.517   5.170  71.329  1.00  0.00    -0.153 C  
BRANCH  12  13
HETATM   13  N   UNL     1      -9.845   4.549  72.603  1.00  0.00    -0.147 NA 
HETATM   14  C   UNL     1      -9.001   3.661  73.238  1.00  0.00    -0.098 A  
HETATM   15  C   UNL     1      -9.675   3.243  74.360  1.00  0.00    -0.112 A  
HETATM   16  N   UNL     1     -10.891   3.854  74.433  1.00  0.00    -0.124 NA 
HETATM   17  C   UNL     1     -10.976   4.608  73.364  1.00  0.00    -0.318 A  
ENDBRANCH  12  13
ENDBRANCH   2  12
TORSDOF 2
ENDMDL
MODEL      185
REMARK 921   NORMALIZED FREE ENERGY PREDICTED BY IDOCK:   -2.25 KCAL/MOL
REMARK 922        TOTAL FREE ENERGY PREDICTED BY IDOCK:   -2.82 KCAL/MOL
REMARK 923 INTER-LIGAND FREE ENERGY PREDICTED BY IDOCK:   -3.33 KCAL/MOL
REMARK 924 INTRA-LIGAND FREE ENERGY PREDICTED BY IDOCK:    0.51 KCAL/MOL
REMARK 927      BINDING AFFINITY PREDICTED BY RF-SCORE:    0.00 PKD
ROOT
HETATM    1  O   UNL     1     -10.060  13.407  69.439  1.00  0.00    -0.301 OA 
HETATM    2  C   UNL     1     -10.915  14.159  68.519  1.00  0.00    -0.254 C  
HETATM    3  H   UNL     1      -9.506  14.031  69.894  1.00  0.00     0.000 HD 
HETATM    4  O   UNL     1     -11.309  15.496  70.854  1.00  0.00    -0.311 OA 
HETATM    5  P   UNL     1      -9.961  14.940  67.166  1.00  0.00    -0.236 P  
HETATM    6  P   UNL     1     -11.959  15.328  69.407  1.00  0.00    -0.250 P  
HETATM    7  O   UNL     1      -9.014  13.575  67.171  1.00  0.00    -0.210 OA 
HETATM    8  O   UNL     1      -9.039  15.698  68.300  1.00  0.00    -0.182 OA 
HETATM    9  O   UNL     1     -13.320  14.557  69.756  1.00  0.00     0.487 OA 
HETATM   10  O   UNL     1     -12.240  16.630  68.761  1.00  0.00     0.391 OA 
HETATM   11  O   UNL     1      -9.155  15.599  66.021  1.00  0.00    -0.334 OA 
ENDROOT
BRANCH   2  12
HETATM   12  C   UNL     1     -11.822  13.137  67.775  1.00  0.00    -0.348 C  
BRANCH  12  13
HETATM   13  N   UNL     1     -12.210  13.402  66.398  1.00  0.00    -0.399 NA 
HETATM   14  C   UNL     1     -12.170  12.434  65.415  1.00  0.00    -0.319 A  
HETATM   15  C   UNL     1     -12.536  13.069  64.253  1.00  0.00    -0.315 A  
HETATM   16  N   UNL     1     -12.806  14.382  64.499  1.00  0.00    -0.571 NA 
HETATM   17  C   UNL     1     -12.583  14.558  65.778  1.00  0.00    -0.180 A  
ENDBRANCH  12  13
ENDBRANCH   2  12
TORSDOF 2
ENDMDL
MODEL      186
REMARK 921   NORMALIZED FREE ENERGY PREDICTED BY IDOCK:   -2.17 KCAL/MOL
REMARK 922        TOTAL FREE ENERGY PREDICTED BY IDOCK:   -2.73 KCAL/MOL
REMARK 923 INTER-LIGAND FREE ENERGY PREDICTED BY IDOCK:   -2.88 KCAL/MOL
REMARK 924 INTRA-LIGAND FREE ENERGY PREDICTED BY IDOCK:    0.15 KCAL/MOL
REMARK 927      BINDING AFFINITY PREDICTED BY RF-SCORE:    0.00 PKD
ROOT
HETATM    1  O   UNL     1      -9.288   6.618  68.711  1.00  0.00    -0.132 OA 
HETATM    2  C   UNL     1      -9.690   7.994  69.010  1.00  0.00    -0.159 C  
HETATM    3  H   UNL     1      -8.636   6.362  69.353  1.00  0.00     0.000 HD 
HETATM    4  O   UNL     1      -9.975   6.798  71.435  1.00  0.00    -0.180 OA 
HETATM    5  P   UNL     1      -8.333   9.189  68.731  1.00  0.00    -0.124 P  
HETATM    6  P   UNL     1     -10.411   8.120  70.656  1.00  0.00    -0.206 P  
HETATM    7  O   UNL     1      -7.907   8.259  67.422  1.00  0.00    -0.103 OA 
HETATM    8  O   UNL     1      -7.399   8.319  69.772  1.00  0.00    -0.062 OA 
HETATM    9  O   UNL     1     -11.987   7.887  70.488  1.00  0.00    -0.127 OA 
HETATM   10  O   UNL     1     -10.137   9.349  71.435  1.00  0.00    -0.301 OA 
HETATM   11  O   UNL     1      -7.185  10.201  68.495  1.00  0.00    -0.077 OA 
ENDROOT
BRANCH   2  12
HETATM   12  C   UNL     1     -10.758   8.413  67.959  1.00  0.00    -0.055 C  
BRANCH  12  13
HETATM   13  N   UNL     1     -11.026   9.827  67.742  1.00  0.00    -0.246 NA 
HETATM   14  C   UNL     1     -10.572  10.509  66.633  1.00  0.00    -0.198 A  
HETATM   15  C   UNL     1     -10.959  11.815  66.815  1.00  0.00    -0.288 A  
HETATM   16  N   UNL     1     -11.641  11.944  67.988  1.00  0.00    -0.369 NA 
HETATM   17  C   UNL     1     -11.647  10.752  68.530  1.00  0.00    -0.255 A  
ENDBRANCH  12  13
ENDBRANCH   2  12
TORSDOF 2
ENDMDL
MODEL      187
REMARK 921   NORMALIZED FREE ENERGY PREDICTED BY IDOCK:   -2.16 KCAL/MOL
REMARK 922        TOTAL FREE ENERGY PREDICTED BY IDOCK:   -2.72 KCAL/MOL
REMARK 923 INTER-LIGAND FREE ENERGY PREDICTED BY IDOCK:   -2.42 KCAL/MOL
REMARK 924 INTRA-LIGAND FREE ENERGY PREDICTED BY IDOCK:   -0.29 KCAL/MOL
REMARK 927      BINDING AFFINITY PREDICTED BY RF-SCORE:    0.00 PKD
ROOT
HETATM    1  O   UNL     1      -7.979   8.359  66.328  1.00  0.00    -0.095 OA 
HETATM    2  C   UNL     1      -7.910   9.787  66.644  1.00  0.00    -0.109 C  
HETATM    3  H   UNL     1      -7.560   8.229  65.485  1.00  0.00     0.000 HD 
HETATM    4  O   UNL     1      -5.321   9.233  66.027  1.00  0.00    -0.039 OA 
HETATM    5  P   UNL     1      -8.927  10.800  65.508  1.00  0.00    -0.184 P  
HETATM    6  P   UNL     1      -6.202  10.350  66.749  1.00  0.00    -0.082 P  
HETATM    7  O   UNL     1     -10.030   9.557  65.536  1.00  0.00    -0.304 OA 
HETATM    8  O   UNL     1      -8.093  10.155  64.243  1.00  0.00    -0.153 OA 
HETATM    9  O   UNL     1      -5.752  10.174  68.277  1.00  0.00    -0.042 OA 
HETATM   10  O   UNL     1      -5.895  11.713  66.261  1.00  0.00    -0.187 OA 
HETATM   11  O   UNL     1      -9.787  11.656  64.548  1.00  0.00    -0.243 OA 
ENDROOT
BRANCH   2  12
HETATM   12  C   UNL     1      -8.596   9.999  68.024  1.00  0.00    -0.121 C  
BRANCH  12  13
HETATM   13  N   UNL     1      -9.065   8.841  68.772  1.00  0.00    -0.138 NA 
HETATM   14  C   UNL     1     -10.393   8.473  68.818  1.00  0.00    -0.213 A  
HETATM   15  C   UNL     1     -10.451   7.391  69.663  1.00  0.00    -0.232 A  
HETATM   16  N   UNL     1      -9.204   7.085  70.121  1.00  0.00    -0.152 NA 
HETATM   17  C   UNL     1      -8.402   7.977  69.593  1.00  0.00    -0.126 A  
ENDBRANCH  12  13
ENDBRANCH   2  12
TORSDOF 2
ENDMDL
MODEL      188
REMARK 921   NORMALIZED FREE ENERGY PREDICTED BY IDOCK:   -2.14 KCAL/MOL
REMARK 922        TOTAL FREE ENERGY PREDICTED BY IDOCK:   -2.70 KCAL/MOL
REMARK 923 INTER-LIGAND FREE ENERGY PREDICTED BY IDOCK:   -2.45 KCAL/MOL
REMARK 924 INTRA-LIGAND FREE ENERGY PREDICTED BY IDOCK:   -0.25 KCAL/MOL
REMARK 927      BINDING AFFINITY PREDICTED BY RF-SCORE:    0.00 PKD
ROOT
HETATM    1  O   UNL     1      -9.598   8.138  67.237  1.00  0.00    -0.146 OA 
HETATM    2  C   UNL     1      -8.180   8.449  67.420  1.00  0.00    -0.120 C  
HETATM    3  H   UNL     1      -9.797   7.372  67.761  1.00  0.00     0.000 HD 
HETATM    4  O   UNL     1      -9.036   8.242  69.993  1.00  0.00    -0.140 OA 
HETATM    5  P   UNL     1      -7.090   7.161  66.711  1.00  0.00    -0.082 P  
HETATM    6  P   UNL     1      -7.809   8.810  69.146  1.00  0.00    -0.101 P  
HETATM    7  O   UNL     1      -8.200   7.030  65.481  1.00  0.00    -0.126 OA 
HETATM    8  O   UNL     1      -7.857   6.045  67.648  1.00  0.00    -0.099 OA 
HETATM    9  O   UNL     1      -7.994  10.391  69.336  1.00  0.00    -0.144 OA 
HETATM   10  O   UNL     1      -6.502   8.362  69.677  1.00  0.00    -0.036 OA 
HETATM   11  O   UNL     1      -6.168   6.072  66.110  1.00  0.00    -0.034 OA 
ENDROOT
BRANCH   2  12
HETATM   12  C   UNL     1      -7.855   9.705  66.562  1.00  0.00    -0.108 C  
BRANCH  12  13
HETATM   13  N   UNL     1      -8.928  10.362  65.829  1.00  0.00    -0.162 NA 
HETATM   14  C   UNL     1      -9.720  11.343  66.390  1.00  0.00    -0.204 A  
HETATM   15  C   UNL     1     -10.648  11.665  65.430  1.00  0.00    -0.280 A  
HETATM   16  N   UNL     1     -10.439  10.925  64.306  1.00  0.00    -0.370 NA 
HETATM   17  C   UNL     1      -9.424  10.142  64.578  1.00  0.00    -0.303 A  
ENDBRANCH  12  13
ENDBRANCH   2  12
TORSDOF 2
ENDMDL
MODEL      189
REMARK 921   NORMALIZED FREE ENERGY PREDICTED BY IDOCK:   -2.13 KCAL/MOL
REMARK 922        TOTAL FREE ENERGY PREDICTED BY IDOCK:   -2.68 KCAL/MOL
REMARK 923 INTER-LIGAND FREE ENERGY PREDICTED BY IDOCK:   -2.82 KCAL/MOL
REMARK 924 INTRA-LIGAND FREE ENERGY PREDICTED BY IDOCK:    0.14 KCAL/MOL
REMARK 927      BINDING AFFINITY PREDICTED BY RF-SCORE:    0.00 PKD
ROOT
HETATM    1  O   UNL     1      -9.751   9.457  71.499  1.00  0.00    -0.226 OA 
HETATM    2  C   UNL     1      -8.978   8.220  71.372  1.00  0.00    -0.166 C  
HETATM    3  H   UNL     1      -9.243  10.062  72.027  1.00  0.00     0.000 HD 
HETATM    4  O   UNL     1      -7.145  10.093  70.643  1.00  0.00    -0.312 OA 
HETATM    5  P   UNL     1      -8.805   7.343  72.970  1.00  0.00    -0.175 P  
HETATM    6  P   UNL     1      -7.397   8.519  70.561  1.00  0.00    -0.075 P  
HETATM    7  O   UNL     1     -10.361   7.826  73.297  1.00  0.00    -0.334 OA 
HETATM    8  O   UNL     1      -8.146   8.710  73.610  1.00  0.00    -0.406 OA 
HETATM    9  O   UNL     1      -7.640   8.315  68.990  1.00  0.00    -0.086 OA 
HETATM   10  O   UNL     1      -6.228   7.737  71.022  1.00  0.00    -0.035 OA 
HETATM   11  O   UNL     1      -8.659   6.601  74.320  1.00  0.00    -0.132 OA 
ENDROOT
BRANCH   2  12
HETATM   12  C   UNL     1      -9.809   7.230  70.508  1.00  0.00    -0.183 C  
BRANCH  12  13
HETATM   13  N   UNL     1      -9.564   5.800  70.630  1.00  0.00    -0.170 NA 
HETATM   14  C   UNL     1      -8.599   5.145  69.894  1.00  0.00    -0.100 A  
HETATM   15  C   UNL     1      -8.713   3.817  70.229  1.00  0.00    -0.076 A  
HETATM   16  N   UNL     1      -9.704   3.648  71.149  1.00  0.00    -0.183 NA 
HETATM   17  C   UNL     1     -10.208   4.840  71.353  1.00  0.00    -0.166 A  
ENDBRANCH  12  13
ENDBRANCH   2  12
TORSDOF 2
ENDMDL
MODEL      190
REMARK 921   NORMALIZED FREE ENERGY PREDICTED BY IDOCK:   -2.11 KCAL/MOL
REMARK 922        TOTAL FREE ENERGY PREDICTED BY IDOCK:   -2.67 KCAL/MOL
REMARK 923 INTER-LIGAND FREE ENERGY PREDICTED BY IDOCK:   -4.03 KCAL/MOL
REMARK 924 INTRA-LIGAND FREE ENERGY PREDICTED BY IDOCK:    1.36 KCAL/MOL
REMARK 927      BINDING AFFINITY PREDICTED BY RF-SCORE:    0.00 PKD
ROOT
HETATM    1  O   UNL     1      -7.038  17.565  69.395  1.00  0.00    -0.185 OA 
HETATM    2  C   UNL     1      -7.432  16.831  68.191  1.00  0.00    -0.171 C  
HETATM    3  H   UNL     1      -6.999  16.943  70.113  1.00  0.00     0.000 HD 
HETATM    4  O   UNL     1      -5.366  15.319  69.106  1.00  0.00    -0.095 OA 
HETATM    5  P   UNL     1      -9.147  16.198  68.294  1.00  0.00    -0.201 P  
HETATM    6  P   UNL     1      -6.234  15.549  67.787  1.00  0.00    -0.131 P  
HETATM    7  O   UNL     1      -9.522  17.610  69.086  1.00  0.00    -0.148 OA 
HETATM    8  O   UNL     1      -8.738  15.417  69.685  1.00  0.00    -0.257 OA 
HETATM    9  O   UNL     1      -5.156  16.218  66.808  1.00  0.00    -0.339 OA 
HETATM   10  O   UNL     1      -6.746  14.280  67.222  1.00  0.00    -0.259 OA 
HETATM   11  O   UNL     1     -10.597  15.663  68.380  1.00  0.00    -0.238 OA 
ENDROOT
BRANCH   2  12
HETATM   12  C   UNL     1      -7.496  17.849  67.017  1.00  0.00    -0.199 C  
BRANCH  12  13
HETATM   13  N   UNL     1      -8.629  18.759  66.925  1.00  0.00    -0.276 NA 
HETATM   14  C   UNL     1      -9.719  18.511  66.117  1.00  0.00    -0.232 A  
HETATM   15  C   UNL     1     -10.534  19.610  66.243  1.00  0.00    -0.519 A  
HETATM   16  N   UNL     1      -9.982  20.508  67.106  1.00  0.00    -0.437 NA 
HETATM   17  C   UNL     1      -8.839  19.987  67.480  1.00  0.00    -0.345 A  
ENDBRANCH  12  13
ENDBRANCH   2  12
TORSDOF 2
ENDMDL
MODEL      191
REMARK 921   NORMALIZED FREE ENERGY PREDICTED BY IDOCK:   -2.11 KCAL/MOL
REMARK 922        TOTAL FREE ENERGY PREDICTED BY IDOCK:   -2.67 KCAL/MOL
REMARK 923 INTER-LIGAND FREE ENERGY PREDICTED BY IDOCK:   -3.13 KCAL/MOL
REMARK 924 INTRA-LIGAND FREE ENERGY PREDICTED BY IDOCK:    0.46 KCAL/MOL
REMARK 927      BINDING AFFINITY PREDICTED BY RF-SCORE:    0.00 PKD
ROOT
HETATM    1  O   UNL     1      -8.333   8.676  66.558  1.00  0.00    -0.105 OA 
HETATM    2  C   UNL     1      -8.988   9.686  67.392  1.00  0.00    -0.131 C  
HETATM    3  H   UNL     1      -7.629   9.104  66.085  1.00  0.00     0.000 HD 
HETATM    4  O   UNL     1      -6.374  10.035  68.054  1.00  0.00    -0.054 OA 
HETATM    5  P   UNL     1      -9.857  10.951  66.395  1.00  0.00    -0.223 P  
HETATM    6  P   UNL     1      -7.836  10.398  68.580  1.00  0.00    -0.121 P  
HETATM    7  O   UNL     1     -10.266   9.720  65.357  1.00  0.00    -0.246 OA 
HETATM    8  O   UNL     1      -8.440  11.262  65.617  1.00  0.00    -0.109 OA 
HETATM    9  O   UNL     1      -7.930   9.502  69.906  1.00  0.00    -0.112 OA 
HETATM   10  O   UNL     1      -7.979  11.835  68.901  1.00  0.00    -0.097 OA 
HETATM   11  O   UNL     1     -10.593  12.021  65.552  1.00  0.00    -0.255 OA 
ENDROOT
BRANCH   2  12
HETATM   12  C   UNL     1     -10.141   8.985  68.165  1.00  0.00    -0.191 C  
BRANCH  12  13
HETATM   13  N   UNL     1     -10.937   9.756  69.109  1.00  0.00    -0.207 NA 
HETATM   14  C   UNL     1     -11.161   9.343  70.405  1.00  0.00    -0.262 A  
HETATM   15  C   UNL     1     -11.999  10.282  70.956  1.00  0.00    -0.385 A  
HETATM   16  N   UNL     1     -12.279  11.255  70.044  1.00  0.00    -0.318 NA 
HETATM   17  C   UNL     1     -11.653  10.906  68.947  1.00  0.00    -0.309 A  
ENDBRANCH  12  13
ENDBRANCH   2  12
TORSDOF 2
ENDMDL
MODEL      192
REMARK 921   NORMALIZED FREE ENERGY PREDICTED BY IDOCK:   -2.10 KCAL/MOL
REMARK 922        TOTAL FREE ENERGY PREDICTED BY IDOCK:   -2.66 KCAL/MOL
REMARK 923 INTER-LIGAND FREE ENERGY PREDICTED BY IDOCK:   -2.86 KCAL/MOL
REMARK 924 INTRA-LIGAND FREE ENERGY PREDICTED BY IDOCK:    0.21 KCAL/MOL
REMARK 927      BINDING AFFINITY PREDICTED BY RF-SCORE:    0.00 PKD
ROOT
HETATM    1  O   UNL     1      -8.488   7.475  69.245  1.00  0.00    -0.133 OA 
HETATM    2  C   UNL     1      -9.266   7.568  70.481  1.00  0.00    -0.157 C  
HETATM    3  H   UNL     1      -7.978   8.272  69.163  1.00  0.00     0.000 HD 
HETATM    4  O   UNL     1      -6.762   8.162  71.360  1.00  0.00    -0.048 OA 
HETATM    5  P   UNL     1     -10.543   8.877  70.400  1.00  0.00    -0.241 P  
HETATM    6  P   UNL     1      -8.191   7.724  71.919  1.00  0.00    -0.126 P  
HETATM    7  O   UNL     1     -10.755   8.443  68.810  1.00  0.00    -0.168 OA 
HETATM    8  O   UNL     1      -9.357   9.963  70.043  1.00  0.00    -0.227 OA 
HETATM    9  O   UNL     1      -7.892   6.236  72.433  1.00  0.00    -0.102 OA 
HETATM   10  O   UNL     1      -8.650   8.586  73.031  1.00  0.00    -0.355 OA 
HETATM   11  O   UNL     1     -11.623   9.984  70.331  1.00  0.00    -0.267 OA 
ENDROOT
BRANCH   2  12
HETATM   12  C   UNL     1     -10.100   6.262  70.615  1.00  0.00    -0.189 C  
BRANCH  12  13
HETATM   13  N   UNL     1      -9.952   5.217  69.612  1.00  0.00    -0.210 NA 
HETATM   14  C   UNL     1      -9.653   3.911  69.938  1.00  0.00    -0.200 A  
HETATM   15  C   UNL     1      -9.528   3.248  68.741  1.00  0.00    -0.127 A  
HETATM   16  N   UNL     1      -9.753   4.104  67.704  1.00  0.00    -0.156 NA 
HETATM   17  C   UNL     1      -9.980   5.273  68.250  1.00  0.00    -0.156 A  
ENDBRANCH  12  13
ENDBRANCH   2  12
TORSDOF 2
ENDMDL
MODEL      193
REMARK 921   NORMALIZED FREE ENERGY PREDICTED BY IDOCK:   -2.09 KCAL/MOL
REMARK 922        TOTAL FREE ENERGY PREDICTED BY IDOCK:   -2.64 KCAL/MOL
REMARK 923 INTER-LIGAND FREE ENERGY PREDICTED BY IDOCK:   -2.77 KCAL/MOL
REMARK 924 INTRA-LIGAND FREE ENERGY PREDICTED BY IDOCK:    0.13 KCAL/MOL
REMARK 927      BINDING AFFINITY PREDICTED BY RF-SCORE:    0.00 PKD
ROOT
HETATM    1  O   UNL     1      -8.371   5.891  68.248  1.00  0.00    -0.111 OA 
HETATM    2  C   UNL     1      -9.082   6.098  69.511  1.00  0.00    -0.139 C  
HETATM    3  H   UNL     1      -8.870   5.267  67.735  1.00  0.00     0.000 HD 
HETATM    4  O   UNL     1     -11.065   6.492  67.693  1.00  0.00    -0.325 OA 
HETATM    5  P   UNL     1      -9.085   4.597  70.559  1.00  0.00    -0.140 P  
HETATM    6  P   UNL     1     -10.733   6.761  69.231  1.00  0.00    -0.264 P  
HETATM    7  O   UNL     1      -7.538   4.327  70.016  1.00  0.00    -0.049 OA 
HETATM    8  O   UNL     1      -9.768   3.768  69.311  1.00  0.00    -0.176 OA 
HETATM    9  O   UNL     1     -10.598   8.358  69.254  1.00  0.00    -0.223 OA 
HETATM   10  O   UNL     1     -11.819   6.308  70.129  1.00  0.00    -0.349 OA 
HETATM   11  O   UNL     1      -9.086   3.328  71.446  1.00  0.00    -0.089 OA 
ENDROOT
BRANCH   2  12
HETATM   12  C   UNL     1      -8.264   7.120  70.352  1.00  0.00    -0.126 C  
BRANCH  12  13
HETATM   13  N   UNL     1      -8.417   7.135  71.799  1.00  0.00    -0.113 NA 
HETATM   14  C   UNL     1      -9.456   7.786  72.432  1.00  0.00    -0.178 A  
HETATM   15  C   UNL     1      -9.225   7.636  73.778  1.00  0.00    -0.277 A  
HETATM   16  N   UNL     1      -8.091   6.908  73.982  1.00  0.00    -0.117 NA 
HETATM   17  C   UNL     1      -7.618   6.642  72.790  1.00  0.00    -0.096 A  
ENDBRANCH  12  13
ENDBRANCH   2  12
TORSDOF 2
ENDMDL
MODEL      194
REMARK 921   NORMALIZED FREE ENERGY PREDICTED BY IDOCK:   -2.07 KCAL/MOL
REMARK 922        TOTAL FREE ENERGY PREDICTED BY IDOCK:   -2.62 KCAL/MOL
REMARK 923 INTER-LIGAND FREE ENERGY PREDICTED BY IDOCK:   -3.10 KCAL/MOL
REMARK 924 INTRA-LIGAND FREE ENERGY PREDICTED BY IDOCK:    0.47 KCAL/MOL
REMARK 927      BINDING AFFINITY PREDICTED BY RF-SCORE:    0.00 PKD
ROOT
HETATM    1  O   UNL     1      -8.501   8.881  69.095  1.00  0.00    -0.127 OA 
HETATM    2  C   UNL     1      -8.770   8.123  70.319  1.00  0.00    -0.133 C  
HETATM    3  H   UNL     1      -7.857   8.397  68.591  1.00  0.00     0.000 HD 
HETATM    4  O   UNL     1      -9.094   6.216  68.408  1.00  0.00    -0.115 OA 
HETATM    5  P   UNL     1      -7.319   8.066  71.433  1.00  0.00    -0.083 P  
HETATM    6  P   UNL     1      -9.431   6.490  69.943  1.00  0.00    -0.153 P  
HETATM    7  O   UNL     1      -7.014   9.631  70.964  1.00  0.00    -0.277 OA 
HETATM    8  O   UNL     1      -6.439   7.425  70.198  1.00  0.00    -0.034 OA 
HETATM    9  O   UNL     1     -11.026   6.638  69.898  1.00  0.00    -0.266 OA 
HETATM   10  O   UNL     1      -9.028   5.366  70.817  1.00  0.00    -0.133 OA 
HETATM   11  O   UNL     1      -6.093   8.019  72.376  1.00  0.00    -0.041 OA 
ENDROOT
BRANCH   2  12
HETATM   12  C   UNL     1      -9.824   8.916  71.143  1.00  0.00    -0.275 C  
BRANCH  12  13
HETATM   13  N   UNL     1     -10.783   9.762  70.447  1.00  0.00    -0.286 NA 
HETATM   14  C   UNL     1     -11.824  10.395  71.093  1.00  0.00    -0.337 A  
HETATM   15  C   UNL     1     -12.540  11.033  70.110  1.00  0.00    -0.211 A  
HETATM   16  N   UNL     1     -11.963  10.819  68.894  1.00  0.00    -0.403 NA 
HETATM   17  C   UNL     1     -10.933  10.042  69.120  1.00  0.00    -0.220 A  
ENDBRANCH  12  13
ENDBRANCH   2  12
TORSDOF 2
ENDMDL
MODEL      195
REMARK 921   NORMALIZED FREE ENERGY PREDICTED BY IDOCK:   -2.00 KCAL/MOL
REMARK 922        TOTAL FREE ENERGY PREDICTED BY IDOCK:   -2.54 KCAL/MOL
REMARK 923 INTER-LIGAND FREE ENERGY PREDICTED BY IDOCK:   -2.32 KCAL/MOL
REMARK 924 INTRA-LIGAND FREE ENERGY PREDICTED BY IDOCK:   -0.22 KCAL/MOL
REMARK 927      BINDING AFFINITY PREDICTED BY RF-SCORE:    0.00 PKD
ROOT
HETATM    1  O   UNL     1     -10.035   6.407  68.770  1.00  0.00    -0.139 OA 
HETATM    2  C   UNL     1      -8.899   7.271  69.098  1.00  0.00    -0.136 C  
HETATM    3  H   UNL     1     -10.280   6.582  67.870  1.00  0.00     0.000 HD 
HETATM    4  O   UNL     1      -8.062   6.118  66.783  1.00  0.00    -0.107 OA 
HETATM    5  P   UNL     1      -9.361   9.043  69.125  1.00  0.00    -0.152 P  
HETATM    6  P   UNL     1      -7.489   6.929  68.031  1.00  0.00    -0.102 P  
HETATM    7  O   UNL     1     -10.807   8.560  69.786  1.00  0.00    -0.229 OA 
HETATM    8  O   UNL     1      -9.909   8.888  67.579  1.00  0.00    -0.164 OA 
HETATM    9  O   UNL     1      -6.615   5.806  68.768  1.00  0.00    -0.046 OA 
HETATM   10  O   UNL     1      -6.644   8.073  67.620  1.00  0.00    -0.055 OA 
HETATM   11  O   UNL     1      -9.751  10.540  69.148  1.00  0.00    -0.203 OA 
ENDROOT
BRANCH   2  12
HETATM   12  C   UNL     1      -8.497   6.984  70.573  1.00  0.00    -0.133 C  
BRANCH  12  13
HETATM   13  N   UNL     1      -9.229   5.977  71.327  1.00  0.00    -0.147 NA 
HETATM   14  C   UNL     1      -8.856   4.649  71.352  1.00  0.00    -0.123 A  
HETATM   15  C   UNL     1      -9.813   4.007  72.100  1.00  0.00    -0.168 A  
HETATM   16  N   UNL     1     -10.744   4.900  72.538  1.00  0.00    -0.211 NA 
HETATM   17  C   UNL     1     -10.385   6.060  72.045  1.00  0.00    -0.202 A  
ENDBRANCH  12  13
ENDBRANCH   2  12
TORSDOF 2
ENDMDL
MODEL      196
REMARK 921   NORMALIZED FREE ENERGY PREDICTED BY IDOCK:   -1.95 KCAL/MOL
REMARK 922        TOTAL FREE ENERGY PREDICTED BY IDOCK:   -2.49 KCAL/MOL
REMARK 923 INTER-LIGAND FREE ENERGY PREDICTED BY IDOCK:   -2.24 KCAL/MOL
REMARK 924 INTRA-LIGAND FREE ENERGY PREDICTED BY IDOCK:   -0.24 KCAL/MOL
REMARK 927      BINDING AFFINITY PREDICTED BY RF-SCORE:    0.00 PKD
ROOT
HETATM    1  O   UNL     1      -7.910   8.034  68.717  1.00  0.00    -0.110 OA 
HETATM    2  C   UNL     1      -9.224   7.791  68.120  1.00  0.00    -0.138 C  
HETATM    3  H   UNL     1      -8.020   8.059  69.660  1.00  0.00     0.000 HD 
HETATM    4  O   UNL     1      -9.081   5.802  69.969  1.00  0.00    -0.139 OA 
HETATM    5  P   UNL     1     -10.372   9.195  68.372  1.00  0.00    -0.177 P  
HETATM    6  P   UNL     1      -9.909   6.218  68.670  1.00  0.00    -0.151 P  
HETATM    7  O   UNL     1      -9.057  10.187  68.156  1.00  0.00    -0.127 OA 
HETATM    8  O   UNL     1     -10.122   9.062  69.995  1.00  0.00    -0.181 OA 
HETATM    9  O   UNL     1      -9.426   5.111  67.616  1.00  0.00    -0.118 OA 
HETATM   10  O   UNL     1     -11.371   6.141  68.886  1.00  0.00    -0.367 OA 
HETATM   11  O   UNL     1     -11.342  10.382  68.584  1.00  0.00    -0.256 OA 
ENDROOT
BRANCH   2  12
HETATM   12  C   UNL     1      -9.043   7.749  66.576  1.00  0.00    -0.170 C  
BRANCH  12  13
HETATM   13  N   UNL     1      -7.706   7.869  66.013  1.00  0.00    -0.089 NA 
HETATM   14  C   UNL     1      -6.899   6.776  65.773  1.00  0.00    -0.056 A  
HETATM   15  C   UNL     1      -5.709   7.286  65.313  1.00  0.00    -0.037 A  
HETATM   16  N   UNL     1      -5.771   8.646  65.256  1.00  0.00    -0.047 NA 
HETATM   17  C   UNL     1      -6.961   8.967  65.699  1.00  0.00    -0.080 A  
ENDBRANCH  12  13
ENDBRANCH   2  12
TORSDOF 2
ENDMDL
MODEL      197
REMARK 921   NORMALIZED FREE ENERGY PREDICTED BY IDOCK:   -1.94 KCAL/MOL
REMARK 922        TOTAL FREE ENERGY PREDICTED BY IDOCK:   -2.47 KCAL/MOL
REMARK 923 INTER-LIGAND FREE ENERGY PREDICTED BY IDOCK:   -2.36 KCAL/MOL
REMARK 924 INTRA-LIGAND FREE ENERGY PREDICTED BY IDOCK:   -0.11 KCAL/MOL
REMARK 927      BINDING AFFINITY PREDICTED BY RF-SCORE:    0.00 PKD
ROOT
HETATM    1  O   UNL     1      -9.201   7.239  65.257  1.00  0.00    -0.295 OA 
HETATM    2  C   UNL     1      -8.480   8.174  66.123  1.00  0.00    -0.136 C  
HETATM    3  H   UNL     1      -9.579   7.739  64.543  1.00  0.00     0.000 HD 
HETATM    4  O   UNL     1      -7.471   8.800  63.677  1.00  0.00    -0.101 OA 
HETATM    5  P   UNL     1      -9.606   9.339  66.975  1.00  0.00    -0.199 P  
HETATM    6  P   UNL     1      -7.156   9.005  65.228  1.00  0.00    -0.086 P  
HETATM    7  O   UNL     1     -10.671   8.070  67.105  1.00  0.00    -0.322 OA 
HETATM    8  O   UNL     1     -10.187   9.799  65.505  1.00  0.00    -0.256 OA 
HETATM    9  O   UNL     1      -5.842   8.106  65.409  1.00  0.00    -0.043 OA 
HETATM   10  O   UNL     1      -6.880  10.420  65.564  1.00  0.00    -0.129 OA 
HETATM   11  O   UNL     1     -10.558  10.324  67.697  1.00  0.00    -0.223 OA 
ENDROOT
BRANCH   2  12
HETATM   12  C   UNL     1      -7.861   7.355  67.292  1.00  0.00    -0.114 C  
BRANCH  12  13
HETATM   13  N   UNL     1      -7.942   5.902  67.263  1.00  0.00    -0.102 NA 
HETATM   14  C   UNL     1      -7.271   5.138  66.331  1.00  0.00    -0.077 A  
HETATM   15  C   UNL     1      -7.644   3.838  66.577  1.00  0.00    -0.084 A  
HETATM   16  N   UNL     1      -8.506   3.788  67.631  1.00  0.00    -0.094 NA 
HETATM   17  C   UNL     1      -8.684   5.031  68.006  1.00  0.00    -0.102 A  
ENDBRANCH  12  13
ENDBRANCH   2  12
TORSDOF 2
ENDMDL
MODEL      198
REMARK 921   NORMALIZED FREE ENERGY PREDICTED BY IDOCK:   -1.90 KCAL/MOL
REMARK 922        TOTAL FREE ENERGY PREDICTED BY IDOCK:   -2.43 KCAL/MOL
REMARK 923 INTER-LIGAND FREE ENERGY PREDICTED BY IDOCK:   -2.55 KCAL/MOL
REMARK 924 INTRA-LIGAND FREE ENERGY PREDICTED BY IDOCK:    0.12 KCAL/MOL
REMARK 927      BINDING AFFINITY PREDICTED BY RF-SCORE:    0.00 PKD
ROOT
HETATM    1  O   UNL     1      -8.334   9.828  69.769  1.00  0.00    -0.145 OA 
HETATM    2  C   UNL     1      -8.744   9.090  68.573  1.00  0.00    -0.133 C  
HETATM    3  H   UNL     1      -7.693  10.477  69.502  1.00  0.00     0.000 HD 
HETATM    4  O   UNL     1      -9.069  11.667  67.768  1.00  0.00    -0.164 OA 
HETATM    5  P   UNL     1      -7.384   8.079  67.881  1.00  0.00    -0.095 P  
HETATM    6  P   UNL     1      -9.494  10.186  67.355  1.00  0.00    -0.157 P  
HETATM    7  O   UNL     1      -6.933   7.778  69.452  1.00  0.00    -0.059 OA 
HETATM    8  O   UNL     1      -6.467   9.443  67.780  1.00  0.00    -0.058 OA 
HETATM    9  O   UNL     1     -11.067  10.207  67.662  1.00  0.00    -0.301 OA 
HETATM   10  O   UNL     1      -9.237   9.904  65.925  1.00  0.00    -0.156 OA 
HETATM   11  O   UNL     1      -6.235   7.222  67.296  1.00  0.00    -0.048 OA 
ENDROOT
BRANCH   2  12
HETATM   12  C   UNL     1      -9.794   8.028  69.010  1.00  0.00    -0.178 C  
BRANCH  12  13
HETATM   13  N   UNL     1      -9.963   6.824  68.210  1.00  0.00    -0.142 NA 
HETATM   14  C   UNL     1     -10.702   6.803  67.045  1.00  0.00    -0.365 A  
HETATM   15  C   UNL     1     -10.689   5.497  66.620  1.00  0.00    -0.261 A  
HETATM   16  N   UNL     1      -9.959   4.730  67.478  1.00  0.00    -0.165 NA 
HETATM   17  C   UNL     1      -9.558   5.540  68.426  1.00  0.00    -0.124 A  
ENDBRANCH  12  13
ENDBRANCH   2  12
TORSDOF 2
ENDMDL
MODEL      199
REMARK 921   NORMALIZED FREE ENERGY PREDICTED BY IDOCK:   -1.88 KCAL/MOL
REMARK 922        TOTAL FREE ENERGY PREDICTED BY IDOCK:   -2.41 KCAL/MOL
REMARK 923 INTER-LIGAND FREE ENERGY PREDICTED BY IDOCK:   -3.03 KCAL/MOL
REMARK 924 INTRA-LIGAND FREE ENERGY PREDICTED BY IDOCK:    0.62 KCAL/MOL
REMARK 927      BINDING AFFINITY PREDICTED BY RF-SCORE:    0.00 PKD
ROOT
HETATM    1  O   UNL     1     -11.419   8.226  70.088  1.00  0.00    -0.453 OA 
HETATM    2  C   UNL     1     -10.055   7.736  69.884  1.00  0.00    -0.203 C  
HETATM    3  H   UNL     1     -11.747   7.843  70.893  1.00  0.00     0.000 HD 
HETATM    4  O   UNL     1      -9.939   8.642  72.446  1.00  0.00    -0.302 OA 
HETATM    5  P   UNL     1     -10.007   5.937  69.546  1.00  0.00    -0.222 P  
HETATM    6  P   UNL     1      -8.977   8.223  71.243  1.00  0.00    -0.194 P  
HETATM    7  O   UNL     1     -11.406   6.157  68.678  1.00  0.00    -0.319 OA 
HETATM    8  O   UNL     1     -10.813   5.685  70.960  1.00  0.00    -0.260 OA 
HETATM    9  O   UNL     1      -8.337   9.636  70.839  1.00  0.00    -0.272 OA 
HETATM   10  O   UNL     1      -7.928   7.268  71.667  1.00  0.00    -0.095 OA 
HETATM   11  O   UNL     1      -9.966   4.417  69.259  1.00  0.00    -0.183 OA 
ENDROOT
BRANCH   2  12
HETATM   12  C   UNL     1      -9.519   8.363  68.566  1.00  0.00    -0.146 C  
BRANCH  12  13
HETATM   13  N   UNL     1      -8.095   8.289  68.270  1.00  0.00    -0.122 NA 
HETATM   14  C   UNL     1      -7.348   9.396  67.927  1.00  0.00    -0.083 A  
HETATM   15  C   UNL     1      -6.086   8.925  67.659  1.00  0.00    -0.047 A  
HETATM   16  N   UNL     1      -6.040   7.575  67.839  1.00  0.00    -0.042 NA 
HETATM   17  C   UNL     1      -7.253   7.220  68.180  1.00  0.00    -0.091 A  
ENDBRANCH  12  13
ENDBRANCH   2  12
TORSDOF 2
ENDMDL
MODEL      200
REMARK 921   NORMALIZED FREE ENERGY PREDICTED BY IDOCK:   -1.85 KCAL/MOL
REMARK 922        TOTAL FREE ENERGY PREDICTED BY IDOCK:   -2.37 KCAL/MOL
REMARK 923 INTER-LIGAND FREE ENERGY PREDICTED BY IDOCK:   -2.08 KCAL/MOL
REMARK 924 INTRA-LIGAND FREE ENERGY PREDICTED BY IDOCK:   -0.28 KCAL/MOL
REMARK 927      BINDING AFFINITY PREDICTED BY RF-SCORE:    0.00 PKD
ROOT
HETATM    1  O   UNL     1      -8.634   5.443  68.194  1.00  0.00    -0.098 OA 
HETATM    2  C   UNL     1      -9.155   6.092  69.398  1.00  0.00    -0.134 C  
HETATM    3  H   UNL     1      -9.204   4.711  67.990  1.00  0.00     0.000 HD 
HETATM    4  O   UNL     1     -11.376   5.968  67.834  1.00  0.00    -0.122 OA 
HETATM    5  P   UNL     1      -9.015   5.024  70.878  1.00  0.00    -0.141 P  
HETATM    6  P   UNL     1     -10.826   6.712  69.134  1.00  0.00    -0.281 P  
HETATM    7  O   UNL     1      -7.564   4.509  70.255  1.00  0.00    -0.049 OA 
HETATM    8  O   UNL     1      -9.875   3.867  70.081  1.00  0.00    -0.200 OA 
HETATM    9  O   UNL     1     -10.680   8.217  68.604  1.00  0.00    -0.150 OA 
HETATM   10  O   UNL     1     -11.774   6.639  70.268  1.00  0.00    -0.389 OA 
HETATM   11  O   UNL     1      -8.897   4.121  72.130  1.00  0.00    -0.105 OA 
ENDROOT
BRANCH   2  12
HETATM   12  C   UNL     1      -8.220   7.290  69.731  1.00  0.00    -0.130 C  
BRANCH  12  13
HETATM   13  N   UNL     1      -7.195   7.681  68.774  1.00  0.00    -0.080 NA 
HETATM   14  C   UNL     1      -5.849   7.493  69.007  1.00  0.00    -0.026 A  
HETATM   15  C   UNL     1      -5.204   8.041  67.925  1.00  0.00    -0.033 A  
HETATM   16  N   UNL     1      -6.111   8.543  67.041  1.00  0.00    -0.054 NA 
HETATM   17  C   UNL     1      -7.286   8.336  67.581  1.00  0.00    -0.093 A  
ENDBRANCH  12  13
ENDBRANCH   2  12
TORSDOF 2
ENDMDL
MODEL      201
REMARK 921   NORMALIZED FREE ENERGY PREDICTED BY IDOCK:   -1.79 KCAL/MOL
REMARK 922        TOTAL FREE ENERGY PREDICTED BY IDOCK:   -2.31 KCAL/MOL
REMARK 923 INTER-LIGAND FREE ENERGY PREDICTED BY IDOCK:   -4.31 KCAL/MOL
REMARK 924 INTRA-LIGAND FREE ENERGY PREDICTED BY IDOCK:    2.00 KCAL/MOL
REMARK 927      BINDING AFFINITY PREDICTED BY RF-SCORE:    0.00 PKD
ROOT
HETATM    1  O   UNL     1      -8.803  17.012  68.914  1.00  0.00    -0.266 OA 
HETATM    2  C   UNL     1      -8.710  17.562  67.561  1.00  0.00    -0.225 C  
HETATM    3  H   UNL     1      -9.661  17.231  69.257  1.00  0.00     0.000 HD 
HETATM    4  O   UNL     1     -11.061  16.201  67.442  1.00  0.00    -0.258 OA 
HETATM    5  P   UNL     1      -8.709  19.392  67.554  1.00  0.00    -0.321 P  
HETATM    6  P   UNL     1      -9.968  16.856  66.482  1.00  0.00    -0.324 P  
HETATM    7  O   UNL     1      -7.799  19.305  68.942  1.00  0.00    -0.351 OA 
HETATM    8  O   UNL     1     -10.136  19.361  68.377  1.00  0.00    -0.399 OA 
HETATM    9  O   UNL     1      -9.318  15.558  65.804  1.00  0.00    -0.332 OA 
HETATM   10  O   UNL     1     -10.573  17.740  65.460  1.00  0.00    -0.632 OA 
HETATM   11  O   UNL     1      -8.708  20.940  67.549  1.00  0.00    -0.210 OA 
ENDROOT
BRANCH   2  12
HETATM   12  C   UNL     1      -7.304  17.201  67.000  1.00  0.00    -0.181 C  
BRANCH  12  13
HETATM   13  N   UNL     1      -6.650  18.118  66.078  1.00  0.00    -0.237 NA 
HETATM   14  C   UNL     1      -7.292  19.210  65.533  1.00  0.00    -0.019 A  
HETATM   15  C   UNL     1      -6.387  19.784  64.674  1.00  0.00    -0.217 A  
HETATM   16  N   UNL     1      -5.217  19.086  64.688  1.00  0.00    -0.176 NA 
HETATM   17  C   UNL     1      -5.408  18.087  65.514  1.00  0.00    -0.160 A  
ENDBRANCH  12  13
ENDBRANCH   2  12
TORSDOF 2
ENDMDL
MODEL      202
REMARK 921   NORMALIZED FREE ENERGY PREDICTED BY IDOCK:   -1.79 KCAL/MOL
REMARK 922        TOTAL FREE ENERGY PREDICTED BY IDOCK:   -2.31 KCAL/MOL
REMARK 923 INTER-LIGAND FREE ENERGY PREDICTED BY IDOCK:   -2.46 KCAL/MOL
REMARK 924 INTRA-LIGAND FREE ENERGY PREDICTED BY IDOCK:    0.16 KCAL/MOL
REMARK 927      BINDING AFFINITY PREDICTED BY RF-SCORE:    0.00 PKD
ROOT
HETATM    1  O   UNL     1      -9.799   8.484  65.863  1.00  0.00    -0.465 OA 
HETATM    2  C   UNL     1      -9.021   8.925  67.022  1.00  0.00    -0.127 C  
HETATM    3  H   UNL     1     -10.507   9.104  65.738  1.00  0.00     0.000 HD 
HETATM    4  O   UNL     1      -9.135  11.200  65.539  1.00  0.00    -0.206 OA 
HETATM    5  P   UNL     1      -9.969   8.799  68.583  1.00  0.00    -0.191 P  
HETATM    6  P   UNL     1      -8.323  10.564  66.755  1.00  0.00    -0.135 P  
HETATM    7  O   UNL     1     -10.624   7.403  67.964  1.00  0.00    -0.208 OA 
HETATM    8  O   UNL     1     -11.133   9.753  67.912  1.00  0.00    -0.236 OA 
HETATM    9  O   UNL     1      -6.878  10.347  66.096  1.00  0.00    -0.109 OA 
HETATM   10  O   UNL     1      -8.242  11.476  67.918  1.00  0.00    -0.123 OA 
HETATM   11  O   UNL     1     -10.771   8.693  69.903  1.00  0.00    -0.227 OA 
ENDROOT
BRANCH   2  12
HETATM   12  C   UNL     1      -7.860   7.909  67.227  1.00  0.00    -0.113 C  
BRANCH  12  13
HETATM   13  N   UNL     1      -7.273   7.756  68.550  1.00  0.00    -0.084 NA 
HETATM   14  C   UNL     1      -7.466   6.631  69.323  1.00  0.00    -0.095 A  
HETATM   15  C   UNL     1      -6.824   6.881  70.512  1.00  0.00    -0.058 A  
HETATM   16  N   UNL     1      -6.240   8.112  70.480  1.00  0.00    -0.035 NA 
HETATM   17  C   UNL     1      -6.541   8.620  69.311  1.00  0.00    -0.049 A  
ENDBRANCH  12  13
ENDBRANCH   2  12
TORSDOF 2
ENDMDL
MODEL      203
REMARK 921   NORMALIZED FREE ENERGY PREDICTED BY IDOCK:   -1.74 KCAL/MOL
REMARK 922        TOTAL FREE ENERGY PREDICTED BY IDOCK:   -2.26 KCAL/MOL
REMARK 923 INTER-LIGAND FREE ENERGY PREDICTED BY IDOCK:   -2.41 KCAL/MOL
REMARK 924 INTRA-LIGAND FREE ENERGY PREDICTED BY IDOCK:    0.16 KCAL/MOL
REMARK 927      BINDING AFFINITY PREDICTED BY RF-SCORE:    0.00 PKD
ROOT
HETATM    1  O   UNL     1      -9.039   8.191  65.173  1.00  0.00    -0.391 OA 
HETATM    2  C   UNL     1      -8.472   8.478  66.491  1.00  0.00    -0.115 C  
HETATM    3  H   UNL     1      -9.320   9.015  64.793  1.00  0.00     0.000 HD 
HETATM    4  O   UNL     1      -7.131  10.244  64.918  1.00  0.00    -0.136 OA 
HETATM    5  P   UNL     1      -9.733   9.078  67.674  1.00  0.00    -0.176 P  
HETATM    6  P   UNL     1      -7.049   9.576  66.364  1.00  0.00    -0.091 P  
HETATM    7  O   UNL     1     -10.779   8.001  66.963  1.00  0.00    -0.328 OA 
HETATM    8  O   UNL     1     -10.104  10.283  66.614  1.00  0.00    -0.206 OA 
HETATM    9  O   UNL     1      -5.757   8.640  66.211  1.00  0.00    -0.042 OA 
HETATM   10  O   UNL     1      -6.854  10.576  67.437  1.00  0.00    -0.074 OA 
HETATM   11  O   UNL     1     -10.799   9.585  68.675  1.00  0.00    -0.209 OA 
ENDROOT
BRANCH   2  12
HETATM   12  C   UNL     1      -8.012   7.127  67.112  1.00  0.00    -0.110 C  
BRANCH  12  13
HETATM   13  N   UNL     1      -7.930   7.001  68.560  1.00  0.00    -0.121 NA 
HETATM   14  C   UNL     1      -8.752   6.160  69.281  1.00  0.00    -0.122 A  
HETATM   15  C   UNL     1      -8.428   6.364  70.601  1.00  0.00    -0.135 A  
HETATM   16  N   UNL     1      -7.433   7.290  70.703  1.00  0.00    -0.078 NA 
HETATM   17  C   UNL     1      -7.172   7.669  69.476  1.00  0.00    -0.080 A  
ENDBRANCH  12  13
ENDBRANCH   2  12
TORSDOF 2
ENDMDL
MODEL      204
REMARK 921   NORMALIZED FREE ENERGY PREDICTED BY IDOCK:   -1.72 KCAL/MOL
REMARK 922        TOTAL FREE ENERGY PREDICTED BY IDOCK:   -2.23 KCAL/MOL
REMARK 923 INTER-LIGAND FREE ENERGY PREDICTED BY IDOCK:   -1.91 KCAL/MOL
REMARK 924 INTRA-LIGAND FREE ENERGY PREDICTED BY IDOCK:   -0.32 KCAL/MOL
REMARK 927      BINDING AFFINITY PREDICTED BY RF-SCORE:    0.00 PKD
ROOT
HETATM    1  O   UNL     1      -9.905   3.519  69.707  1.00  0.00    -0.118 OA 
HETATM    2  C   UNL     1      -8.970   4.543  69.239  1.00  0.00    -0.096 C  
HETATM    3  H   UNL     1     -10.264   3.084  68.943  1.00  0.00     0.000 HD 
HETATM    4  O   UNL     1      -8.106   2.349  67.885  1.00  0.00    -0.062 OA 
HETATM    5  P   UNL     1      -9.817   5.897  68.344  1.00  0.00    -0.155 P  
HETATM    6  P   UNL     1      -7.622   3.813  68.293  1.00  0.00    -0.061 P  
HETATM    7  O   UNL     1     -11.050   5.729  69.445  1.00  0.00    -0.346 OA 
HETATM    8  O   UNL     1     -10.453   4.776  67.319  1.00  0.00    -0.113 OA 
HETATM    9  O   UNL     1      -6.453   3.482  69.339  1.00  0.00    -0.032 OA 
HETATM   10  O   UNL     1      -7.098   4.576  67.138  1.00  0.00    -0.065 OA 
HETATM   11  O   UNL     1     -10.532   7.043  67.588  1.00  0.00    -0.192 OA 
ENDROOT
BRANCH   2  12
HETATM   12  C   UNL     1      -8.381   5.254  70.491  1.00  0.00    -0.112 C  
BRANCH  12  13
HETATM   13  N   UNL     1      -8.666   4.718  71.813  1.00  0.00    -0.122 NA 
HETATM   14  C   UNL     1      -9.632   5.252  72.640  1.00  0.00    -0.147 A  
HETATM   15  C   UNL     1      -9.560   4.533  73.809  1.00  0.00    -0.123 A  
HETATM   16  N   UNL     1      -8.593   3.577  73.715  1.00  0.00    -0.082 NA 
HETATM   17  C   UNL     1      -8.062   3.724  72.526  1.00  0.00    -0.081 A  
ENDBRANCH  12  13
ENDBRANCH   2  12
TORSDOF 2
ENDMDL
MODEL      205
REMARK 921   NORMALIZED FREE ENERGY PREDICTED BY IDOCK:   -1.69 KCAL/MOL
REMARK 922        TOTAL FREE ENERGY PREDICTED BY IDOCK:   -2.20 KCAL/MOL
REMARK 923 INTER-LIGAND FREE ENERGY PREDICTED BY IDOCK:   -2.73 KCAL/MOL
REMARK 924 INTRA-LIGAND FREE ENERGY PREDICTED BY IDOCK:    0.53 KCAL/MOL
REMARK 927      BINDING AFFINITY PREDICTED BY RF-SCORE:    0.00 PKD
ROOT
HETATM    1  O   UNL     1     -10.901   8.069  68.770  1.00  0.00    -0.406 OA 
HETATM    2  C   UNL     1     -10.054   7.259  69.648  1.00  0.00    -0.194 C  
HETATM    3  H   UNL     1     -11.590   7.508  68.435  1.00  0.00     0.000 HD 
HETATM    4  O   UNL     1     -12.534   6.728  70.630  1.00  0.00    -0.320 OA 
HETATM    5  P   UNL     1      -9.137   5.969  68.729  1.00  0.00    -0.124 P  
HETATM    6  P   UNL     1     -10.996   6.598  71.034  1.00  0.00    -0.290 P  
HETATM    7  O   UNL     1      -8.979   7.083  67.507  1.00  0.00    -0.118 OA 
HETATM    8  O   UNL     1     -10.574   5.404  68.155  1.00  0.00    -0.160 OA 
HETATM    9  O   UNL     1     -10.885   7.672  72.219  1.00  0.00    -0.234 OA 
HETATM   10  O   UNL     1     -10.652   5.241  71.516  1.00  0.00    -0.225 OA 
HETATM   11  O   UNL     1      -8.361   4.878  67.952  1.00  0.00    -0.103 OA 
ENDROOT
BRANCH   2  12
HETATM   12  C   UNL     1      -8.926   8.178  70.197  1.00  0.00    -0.146 C  
BRANCH  12  13
HETATM   13  N   UNL     1      -7.978   7.642  71.162  1.00  0.00    -0.090 NA 
HETATM   14  C   UNL     1      -7.443   8.403  72.181  1.00  0.00    -0.112 A  
HETATM   15  C   UNL     1      -6.553   7.582  72.830  1.00  0.00    -0.065 A  
HETATM   16  N   UNL     1      -6.539   6.350  72.249  1.00  0.00    -0.058 NA 
HETATM   17  C   UNL     1      -7.379   6.420  71.246  1.00  0.00    -0.080 A  
ENDBRANCH  12  13
ENDBRANCH   2  12
TORSDOF 2
ENDMDL
MODEL      206
REMARK 921   NORMALIZED FREE ENERGY PREDICTED BY IDOCK:   -1.65 KCAL/MOL
REMARK 922        TOTAL FREE ENERGY PREDICTED BY IDOCK:   -2.15 KCAL/MOL
REMARK 923 INTER-LIGAND FREE ENERGY PREDICTED BY IDOCK:   -2.06 KCAL/MOL
REMARK 924 INTRA-LIGAND FREE ENERGY PREDICTED BY IDOCK:   -0.09 KCAL/MOL
REMARK 927      BINDING AFFINITY PREDICTED BY RF-SCORE:    0.00 PKD
ROOT
HETATM    1  O   UNL     1      -9.676   6.838  70.477  1.00  0.00    -0.175 OA 
HETATM    2  C   UNL     1      -8.364   6.456  69.953  1.00  0.00    -0.130 C  
HETATM    3  H   UNL     1     -10.314   6.701  69.787  1.00  0.00     0.000 HD 
HETATM    4  O   UNL     1      -9.860   4.269  69.341  1.00  0.00    -0.202 OA 
HETATM    5  P   UNL     1      -7.794   7.577  68.624  1.00  0.00    -0.124 P  
HETATM    6  P   UNL     1      -8.335   4.721  69.468  1.00  0.00    -0.083 P  
HETATM    7  O   UNL     1      -8.491   8.811  69.493  1.00  0.00    -0.123 OA 
HETATM    8  O   UNL     1      -9.181   7.249  67.799  1.00  0.00    -0.128 OA 
HETATM    9  O   UNL     1      -7.862   3.891  70.755  1.00  0.00    -0.050 OA 
HETATM   10  O   UNL     1      -7.537   4.352  68.278  1.00  0.00    -0.067 OA 
HETATM   11  O   UNL     1      -7.311   8.527  67.500  1.00  0.00    -0.086 OA 
ENDROOT
BRANCH   2  12
HETATM   12  C   UNL     1      -7.320   6.681  71.084  1.00  0.00    -0.079 C  
BRANCH  12  13
HETATM   13  N   UNL     1      -7.769   7.161  72.383  1.00  0.00    -0.092 NA 
HETATM   14  C   UNL     1      -8.550   6.400  73.227  1.00  0.00    -0.121 A  
HETATM   15  C   UNL     1      -8.824   7.205  74.307  1.00  0.00    -0.213 A  
HETATM   16  N   UNL     1      -8.226   8.419  74.151  1.00  0.00    -0.328 NA 
HETATM   17  C   UNL     1      -7.625   8.374  72.988  1.00  0.00    -0.059 A  
ENDBRANCH  12  13
ENDBRANCH   2  12
TORSDOF 2
ENDMDL
MODEL      207
REMARK 921   NORMALIZED FREE ENERGY PREDICTED BY IDOCK:   -1.62 KCAL/MOL
REMARK 922        TOTAL FREE ENERGY PREDICTED BY IDOCK:   -2.12 KCAL/MOL
REMARK 923 INTER-LIGAND FREE ENERGY PREDICTED BY IDOCK:   -2.01 KCAL/MOL
REMARK 924 INTRA-LIGAND FREE ENERGY PREDICTED BY IDOCK:   -0.10 KCAL/MOL
REMARK 927      BINDING AFFINITY PREDICTED BY RF-SCORE:    0.00 PKD
ROOT
HETATM    1  O   UNL     1      -8.346   7.383  69.026  1.00  0.00    -0.124 OA 
HETATM    2  C   UNL     1      -8.986   6.297  68.282  1.00  0.00    -0.115 C  
HETATM    3  H   UNL     1      -8.386   8.165  68.488  1.00  0.00     0.000 HD 
HETATM    4  O   UNL     1     -10.875   8.248  68.142  1.00  0.00    -0.080 OA 
HETATM    5  P   UNL     1      -8.040   5.829  66.786  1.00  0.00    -0.101 P  
HETATM    6  P   UNL     1     -10.712   6.675  67.931  1.00  0.00    -0.280 P  
HETATM    7  O   UNL     1      -6.667   6.102  67.682  1.00  0.00    -0.054 OA 
HETATM    8  O   UNL     1      -8.133   7.393  66.279  1.00  0.00    -0.108 OA 
HETATM    9  O   UNL     1     -11.568   6.098  69.156  1.00  0.00    -0.287 OA 
HETATM   10  O   UNL     1     -11.267   6.220  66.637  1.00  0.00    -0.243 OA 
HETATM   11  O   UNL     1      -7.240   5.432  65.522  1.00  0.00    -0.066 OA 
ENDROOT
BRANCH   2  12
HETATM   12  C   UNL     1      -8.919   5.017  69.163  1.00  0.00    -0.100 C  
BRANCH  12  13
HETATM   13  N   UNL     1      -8.357   5.104  70.503  1.00  0.00    -0.108 NA 
HETATM   14  C   UNL     1      -7.285   4.338  70.911  1.00  0.00    -0.041 A  
HETATM   15  C   UNL     1      -7.091   4.645  72.236  1.00  0.00    -0.066 A  
HETATM   16  N   UNL     1      -7.999   5.578  72.640  1.00  0.00    -0.102 NA 
HETATM   17  C   UNL     1      -8.754   5.816  71.596  1.00  0.00    -0.136 A  
ENDBRANCH  12  13
ENDBRANCH   2  12
TORSDOF 2
ENDMDL
MODEL      208
REMARK 921   NORMALIZED FREE ENERGY PREDICTED BY IDOCK:   -1.62 KCAL/MOL
REMARK 922        TOTAL FREE ENERGY PREDICTED BY IDOCK:   -2.12 KCAL/MOL
REMARK 923 INTER-LIGAND FREE ENERGY PREDICTED BY IDOCK:   -2.49 KCAL/MOL
REMARK 924 INTRA-LIGAND FREE ENERGY PREDICTED BY IDOCK:    0.37 KCAL/MOL
REMARK 927      BINDING AFFINITY PREDICTED BY RF-SCORE:    0.00 PKD
ROOT
HETATM    1  O   UNL     1      -8.964   5.891  68.478  1.00  0.00    -0.114 OA 
HETATM    2  C   UNL     1      -9.011   7.275  68.952  1.00  0.00    -0.133 C  
HETATM    3  H   UNL     1      -8.051   5.650  68.378  1.00  0.00     0.000 HD 
HETATM    4  O   UNL     1      -7.280   6.145  70.719  1.00  0.00    -0.070 OA 
HETATM    5  P   UNL     1      -8.397   8.459  67.698  1.00  0.00    -0.131 P  
HETATM    6  P   UNL     1      -8.185   7.448  70.544  1.00  0.00    -0.129 P  
HETATM    7  O   UNL     1      -9.131   7.493  66.562  1.00  0.00    -0.153 OA 
HETATM    8  O   UNL     1      -6.985   7.614  67.641  1.00  0.00    -0.076 OA 
HETATM    9  O   UNL     1      -9.301   7.215  71.669  1.00  0.00    -0.152 OA 
HETATM   10  O   UNL     1      -7.431   8.696  70.796  1.00  0.00    -0.063 OA 
HETATM   11  O   UNL     1      -7.879   9.461  66.637  1.00  0.00    -0.103 OA 
ENDROOT
BRANCH   2  12
HETATM   12  C   UNL     1     -10.507   7.669  69.115  1.00  0.00    -0.214 C  
BRANCH  12  13
HETATM   13  N   UNL     1     -10.863   9.075  69.236  1.00  0.00    -0.168 NA 
HETATM   14  C   UNL     1     -11.087   9.883  68.140  1.00  0.00    -0.156 A  
HETATM   15  C   UNL     1     -11.327  11.137  68.646  1.00  0.00    -0.277 A  
HETATM   16  N   UNL     1     -11.268  11.115  70.007  1.00  0.00    -0.231 NA 
HETATM   17  C   UNL     1     -10.968   9.882  70.330  1.00  0.00    -0.318 A  
ENDBRANCH  12  13
ENDBRANCH   2  12
TORSDOF 2
ENDMDL
MODEL      209
REMARK 921   NORMALIZED FREE ENERGY PREDICTED BY IDOCK:   -1.62 KCAL/MOL
REMARK 922        TOTAL FREE ENERGY PREDICTED BY IDOCK:   -2.11 KCAL/MOL
REMARK 923 INTER-LIGAND FREE ENERGY PREDICTED BY IDOCK:   -2.24 KCAL/MOL
REMARK 924 INTRA-LIGAND FREE ENERGY PREDICTED BY IDOCK:    0.13 KCAL/MOL
REMARK 927      BINDING AFFINITY PREDICTED BY RF-SCORE:    0.00 PKD
ROOT
HETATM    1  O   UNL     1      -8.090   7.983  69.121  1.00  0.00    -0.115 OA 
HETATM    2  C   UNL     1      -8.711   6.905  68.349  1.00  0.00    -0.124 C  
HETATM    3  H   UNL     1      -8.229   8.795  68.648  1.00  0.00     0.000 HD 
HETATM    4  O   UNL     1     -10.737   8.712  68.501  1.00  0.00    -0.158 OA 
HETATM    5  P   UNL     1      -7.860   6.614  66.755  1.00  0.00    -0.110 P  
HETATM    6  P   UNL     1     -10.482   7.174  68.161  1.00  0.00    -0.172 P  
HETATM    7  O   UNL     1      -6.441   6.928  67.561  1.00  0.00    -0.046 OA 
HETATM    8  O   UNL     1      -8.104   8.198  66.375  1.00  0.00    -0.101 OA 
HETATM    9  O   UNL     1     -11.192   6.450  69.402  1.00  0.00    -0.359 OA 
HETATM   10  O   UNL     1     -11.108   6.768  66.882  1.00  0.00    -0.397 OA 
HETATM   11  O   UNL     1      -7.139   6.368  65.407  1.00  0.00    -0.061 OA 
ENDROOT
BRANCH   2  12
HETATM   12  C   UNL     1      -8.482   5.576  69.125  1.00  0.00    -0.104 C  
BRANCH  12  13
HETATM   13  N   UNL     1      -8.417   4.324  68.387  1.00  0.00    -0.091 NA 
HETATM   14  C   UNL     1      -9.543   3.662  67.944  1.00  0.00    -0.122 A  
HETATM   15  C   UNL     1      -9.089   2.504  67.360  1.00  0.00    -0.169 A  
HETATM   16  N   UNL     1      -7.729   2.447  67.424  1.00  0.00    -0.061 NA 
HETATM   17  C   UNL     1      -7.357   3.531  68.059  1.00  0.00    -0.054 A  
ENDBRANCH  12  13
ENDBRANCH   2  12
TORSDOF 2
ENDMDL
MODEL      210
REMARK 921   NORMALIZED FREE ENERGY PREDICTED BY IDOCK:   -1.59 KCAL/MOL
REMARK 922        TOTAL FREE ENERGY PREDICTED BY IDOCK:   -2.08 KCAL/MOL
REMARK 923 INTER-LIGAND FREE ENERGY PREDICTED BY IDOCK:   -2.29 KCAL/MOL
REMARK 924 INTRA-LIGAND FREE ENERGY PREDICTED BY IDOCK:    0.21 KCAL/MOL
REMARK 927      BINDING AFFINITY PREDICTED BY RF-SCORE:    0.00 PKD
ROOT
HETATM    1  O   UNL     1      -7.420   7.368  71.188  1.00  0.00    -0.075 OA 
HETATM    2  C   UNL     1      -8.791   6.854  71.188  1.00  0.00    -0.142 C  
HETATM    3  H   UNL     1      -6.931   6.885  71.842  1.00  0.00     0.000 HD 
HETATM    4  O   UNL     1      -7.344   4.562  70.976  1.00  0.00    -0.049 OA 
HETATM    5  P   UNL     1      -9.676   7.238  72.744  1.00  0.00    -0.196 P  
HETATM    6  P   UNL     1      -8.831   5.102  70.772  1.00  0.00    -0.138 P  
HETATM    7  O   UNL     1      -8.879   8.696  72.728  1.00  0.00    -0.374 OA 
HETATM    8  O   UNL     1      -8.471   6.483  73.575  1.00  0.00    -0.121 OA 
HETATM    9  O   UNL     1      -8.990   5.010  69.180  1.00  0.00    -0.097 OA 
HETATM   10  O   UNL     1      -9.836   4.255  71.454  1.00  0.00    -0.177 OA 
HETATM   11  O   UNL     1     -10.424   7.564  74.059  1.00  0.00    -0.197 OA 
ENDROOT
BRANCH   2  12
HETATM   12  C   UNL     1      -9.593   7.645  70.115  1.00  0.00    -0.168 C  
BRANCH  12  13
HETATM   13  N   UNL     1      -8.872   8.375  69.083  1.00  0.00    -0.142 NA 
HETATM   14  C   UNL     1      -9.109   8.189  67.737  1.00  0.00    -0.135 A  
HETATM   15  C   UNL     1      -8.202   8.989  67.085  1.00  0.00    -0.110 A  
HETATM   16  N   UNL     1      -7.434   9.661  67.988  1.00  0.00    -0.082 NA 
HETATM   17  C   UNL     1      -7.838   9.261  69.168  1.00  0.00    -0.086 A  
ENDBRANCH  12  13
ENDBRANCH   2  12
TORSDOF 2
ENDMDL
MODEL      211
REMARK 921   NORMALIZED FREE ENERGY PREDICTED BY IDOCK:   -1.53 KCAL/MOL
REMARK 922        TOTAL FREE ENERGY PREDICTED BY IDOCK:   -2.02 KCAL/MOL
REMARK 923 INTER-LIGAND FREE ENERGY PREDICTED BY IDOCK:   -3.58 KCAL/MOL
REMARK 924 INTRA-LIGAND FREE ENERGY PREDICTED BY IDOCK:    1.56 KCAL/MOL
REMARK 927      BINDING AFFINITY PREDICTED BY RF-SCORE:    0.00 PKD
ROOT
HETATM    1  O   UNL     1      -8.716   7.909  70.390  1.00  0.00    -0.135 OA 
HETATM    2  C   UNL     1     -10.100   7.886  69.913  1.00  0.00    -0.197 C  
HETATM    3  H   UNL     1      -8.737   7.944  71.339  1.00  0.00     0.000 HD 
HETATM    4  O   UNL     1     -10.118   5.885  71.755  1.00  0.00    -0.181 OA 
HETATM    5  P   UNL     1     -10.978   9.454  70.256  1.00  0.00    -0.280 P  
HETATM    6  P   UNL     1     -10.979   6.440  70.532  1.00  0.00    -0.357 P  
HETATM    7  O   UNL     1      -9.544  10.223  69.918  1.00  0.00    -0.176 OA 
HETATM    8  O   UNL     1     -10.612   9.271  71.851  1.00  0.00    -0.324 OA 
HETATM    9  O   UNL     1     -10.775   5.278  69.446  1.00  0.00    -0.233 OA 
HETATM   10  O   UNL     1     -12.409   6.598  70.875  1.00  0.00    -0.353 OA 
HETATM   11  O   UNL     1     -11.721  10.782  70.545  1.00  0.00    -0.311 OA 
ENDROOT
BRANCH   2  12
HETATM   12  C   UNL     1     -10.064   7.827  68.359  1.00  0.00    -0.192 C  
BRANCH  12  13
HETATM   13  N   UNL     1      -9.676   9.014  67.611  1.00  0.00    -0.150 NA 
HETATM   14  C   UNL     1      -8.360   9.330  67.346  1.00  0.00    -0.122 A  
HETATM   15  C   UNL     1      -8.391  10.537  66.690  1.00  0.00    -0.131 A  
HETATM   16  N   UNL     1      -9.679  10.957  66.540  1.00  0.00    -0.193 NA 
HETATM   17  C   UNL     1     -10.421  10.044  67.116  1.00  0.00    -0.244 A  
ENDBRANCH  12  13
ENDBRANCH   2  12
TORSDOF 2
ENDMDL
MODEL      212
REMARK 921   NORMALIZED FREE ENERGY PREDICTED BY IDOCK:   -1.38 KCAL/MOL
REMARK 922        TOTAL FREE ENERGY PREDICTED BY IDOCK:   -1.85 KCAL/MOL
REMARK 923 INTER-LIGAND FREE ENERGY PREDICTED BY IDOCK:   -3.38 KCAL/MOL
REMARK 924 INTRA-LIGAND FREE ENERGY PREDICTED BY IDOCK:    1.53 KCAL/MOL
REMARK 927      BINDING AFFINITY PREDICTED BY RF-SCORE:    0.00 PKD
ROOT
HETATM    1  O   UNL     1     -11.136  16.178  68.135  1.00  0.00    -0.334 OA 
HETATM    2  C   UNL     1      -9.887  16.168  67.372  1.00  0.00    -0.238 C  
HETATM    3  H   UNL     1     -11.230  17.039  68.525  1.00  0.00     0.000 HD 
HETATM    4  O   UNL     1     -11.094  18.413  66.424  1.00  0.00     0.098 OA 
HETATM    5  P   UNL     1      -8.414  16.305  68.450  1.00  0.00    -0.215 P  
HETATM    6  P   UNL     1      -9.914  17.403  66.060  1.00  0.00    -0.089 P  
HETATM    7  O   UNL     1      -9.233  15.349  69.534  1.00  0.00    -0.261 OA 
HETATM    8  O   UNL     1      -9.037  17.700  69.066  1.00  0.00    -0.177 OA 
HETATM    9  O   UNL     1     -10.504  16.678  64.758  1.00  0.00    -0.587 OA 
HETATM   10  O   UNL     1      -8.648  18.103  65.747  1.00  0.00    -0.472 OA 
HETATM   11  O   UNL     1      -7.168  16.420  69.361  1.00  0.00    -0.228 OA 
ENDROOT
BRANCH   2  12
HETATM   12  C   UNL     1      -9.734  14.758  66.734  1.00  0.00    -0.254 C  
BRANCH  12  13
HETATM   13  N   UNL     1      -8.757  13.830  67.285  1.00  0.00    -0.210 NA 
HETATM   14  C   UNL     1      -9.110  12.782  68.110  1.00  0.00    -0.203 A  
HETATM   15  C   UNL     1      -7.929  12.183  68.476  1.00  0.00    -0.119 A  
HETATM   16  N   UNL     1      -6.877  12.823  67.892  1.00  0.00    -0.098 NA 
HETATM   17  C   UNL     1      -7.396  13.811  67.208  1.00  0.00     0.002 A  
ENDBRANCH  12  13
ENDBRANCH   2  12
TORSDOF 2
ENDMDL
MODEL      213
REMARK 921   NORMALIZED FREE ENERGY PREDICTED BY IDOCK:   -0.44 KCAL/MOL
REMARK 922        TOTAL FREE ENERGY PREDICTED BY IDOCK:   -0.80 KCAL/MOL
REMARK 923 INTER-LIGAND FREE ENERGY PREDICTED BY IDOCK:   -2.32 KCAL/MOL
REMARK 924 INTRA-LIGAND FREE ENERGY PREDICTED BY IDOCK:    1.51 KCAL/MOL
REMARK 927      BINDING AFFINITY PREDICTED BY RF-SCORE:    0.00 PKD
ROOT
HETATM    1  O   UNL     1      -9.390   7.944  65.331  1.00  0.00    -0.381 OA 
HETATM    2  C   UNL     1      -8.501   9.076  65.600  1.00  0.00    -0.150 C  
HETATM    3  H   UNL     1      -9.641   7.984  64.416  1.00  0.00     0.000 HD 
HETATM    4  O   UNL     1      -7.341   7.974  63.401  1.00  0.00    -0.095 OA 
HETATM    5  P   UNL     1      -9.367  10.683  65.470  1.00  0.00    -0.237 P  
HETATM    6  P   UNL     1      -7.016   8.995  64.583  1.00  0.00    -0.088 P  
HETATM    7  O   UNL     1     -10.680   9.926  66.152  1.00  0.00    -0.045 OA 
HETATM    8  O   UNL     1      -9.813  10.281  63.937  1.00  0.00    -0.305 OA 
HETATM    9  O   UNL     1      -5.927   8.173  65.424  1.00  0.00    -0.044 OA 
HETATM   10  O   UNL     1      -6.451  10.269  64.088  1.00  0.00    -0.132 OA 
HETATM   11  O   UNL     1     -10.100  12.043  65.362  1.00  0.00    -0.247 OA 
ENDROOT
BRANCH   2  12
HETATM   12  C   UNL     1      -8.091   9.010  67.099  1.00  0.00    -0.106 C  
BRANCH  12  13
HETATM   13  N   UNL     1      -7.578  10.206  67.749  1.00  0.00    -0.090 NA 
HETATM   14  C   UNL     1      -7.432  11.408  67.088  1.00  0.00    -0.138 A  
HETATM   15  C   UNL     1      -6.864  12.267  67.998  1.00  0.00    -0.082 A  
HETATM   16  N   UNL     1      -6.672  11.632  69.188  1.00  0.00    -0.101 NA 
HETATM   17  C   UNL     1      -7.084  10.402  69.006  1.00  0.00    -0.076 A  
ENDBRANCH  12  13
ENDBRANCH   2  12
TORSDOF 2
ENDMDL
MODEL      214
REMARK 921   NORMALIZED FREE ENERGY PREDICTED BY IDOCK:   -0.44 KCAL/MOL
REMARK 922        TOTAL FREE ENERGY PREDICTED BY IDOCK:   -0.80 KCAL/MOL
REMARK 923 INTER-LIGAND FREE ENERGY PREDICTED BY IDOCK:   -1.54 KCAL/MOL
REMARK 924 INTRA-LIGAND FREE ENERGY PREDICTED BY IDOCK:    0.74 KCAL/MOL
REMARK 927      BINDING AFFINITY PREDICTED BY RF-SCORE:    0.00 PKD
ROOT
HETATM    1  O   UNL     1     -11.910  12.128  67.863  1.00  0.00    -0.422 OA 
HETATM    2  C   UNL     1     -10.782  12.589  68.674  1.00  0.00    -0.234 C  
HETATM    3  H   UNL     1     -12.004  12.728  67.132  1.00  0.00     0.000 HD 
HETATM    4  O   UNL     1      -9.684  12.527  66.186  1.00  0.00    -0.254 OA 
HETATM    5  P   UNL     1     -11.120  14.194  69.486  1.00  0.00    -0.060 P  
HETATM    6  P   UNL     1      -9.253  12.593  67.721  1.00  0.00    -0.212 P  
HETATM    7  O   UNL     1     -12.679  13.657  69.690  1.00  0.00    -0.078 OA 
HETATM    8  O   UNL     1     -11.437  14.838  68.004  1.00  0.00    -0.304 OA 
HETATM    9  O   UNL     1      -8.579  11.153  67.926  1.00  0.00    -0.128 OA 
HETATM   10  O   UNL     1      -8.279  13.675  67.987  1.00  0.00    -0.139 OA 
HETATM   11  O   UNL     1     -11.407  15.551  70.174  1.00  0.00    -0.269 OA 
ENDROOT
BRANCH   2  12
HETATM   12  C   UNL     1     -10.628  11.607  69.870  1.00  0.00     0.624 C  
BRANCH  12  13
HETATM   13  N   UNL     1     -10.642  10.173  69.621  1.00  0.00    -0.239 NA 
HETATM   14  C   UNL     1      -9.606   9.343  69.997  1.00  0.00    -0.226 A  
HETATM   15  C   UNL     1      -9.946   8.093  69.537  1.00  0.00    -0.187 A  
HETATM   16  N   UNL     1     -11.154   8.136  68.908  1.00  0.00     0.179 NA 
HETATM   17  C   UNL     1     -11.535   9.389  68.952  1.00  0.00     0.410 A  
ENDBRANCH  12  13
ENDBRANCH   2  12
TORSDOF 2
ENDMDL
MODEL      215
REMARK 921   NORMALIZED FREE ENERGY PREDICTED BY IDOCK:   -0.33 KCAL/MOL
REMARK 922        TOTAL FREE ENERGY PREDICTED BY IDOCK:   -0.68 KCAL/MOL
REMARK 923 INTER-LIGAND FREE ENERGY PREDICTED BY IDOCK:   -1.05 KCAL/MOL
REMARK 924 INTRA-LIGAND FREE ENERGY PREDICTED BY IDOCK:    0.37 KCAL/MOL
REMARK 927      BINDING AFFINITY PREDICTED BY RF-SCORE:    0.00 PKD
ROOT
HETATM    1  O   UNL     1      -7.801  13.689  66.859  1.00  0.00    -0.372 OA 
HETATM    2  C   UNL     1      -8.266  14.285  68.112  1.00  0.00    -0.146 C  
HETATM    3  H   UNL     1      -6.928  14.021  66.686  1.00  0.00     0.000 HD 
HETATM    4  O   UNL     1      -5.831  13.311  68.833  1.00  0.00    -0.071 OA 
HETATM    5  P   UNL     1      -8.523  16.092  67.968  1.00  0.00    -0.169 P  
HETATM    6  P   UNL     1      -7.189  13.837  69.486  1.00  0.00     0.417 P  
HETATM    7  O   UNL     1      -9.085  15.796  66.433  1.00  0.00    -0.264 OA 
HETATM    8  O   UNL     1      -6.961  16.240  67.469  1.00  0.00    -0.128 OA 
HETATM    9  O   UNL     1      -7.784  12.490  70.116  1.00  0.00     1.614 OA 
HETATM   10  O   UNL     1      -6.953  14.854  70.535  1.00  0.00     0.035 OA 
HETATM   11  O   UNL     1      -8.742  17.620  67.846  1.00  0.00    -0.236 OA 
ENDROOT
BRANCH   2  12
HETATM   12  C   UNL     1      -9.695  13.741  68.394  1.00  0.00    -0.219 C  
BRANCH  12  13
HETATM   13  N   UNL     1     -10.444  13.116  67.314  1.00  0.00    -0.242 NA 
HETATM   14  C   UNL     1     -11.155  13.844  66.383  1.00  0.00    -0.309 A  
HETATM   15  C   UNL     1     -11.774  12.918  65.580  1.00  0.00    -0.383 A  
HETATM   16  N   UNL     1     -11.455  11.656  65.984  1.00  0.00    -0.328 NA 
HETATM   17  C   UNL     1     -10.681  11.803  67.030  1.00  0.00    -0.246 A  
ENDBRANCH  12  13
ENDBRANCH   2  12
TORSDOF 2
ENDMDL
MODEL      216
REMARK 921   NORMALIZED FREE ENERGY PREDICTED BY IDOCK:   11.75 KCAL/MOL
REMARK 922        TOTAL FREE ENERGY PREDICTED BY IDOCK:   12.82 KCAL/MOL
REMARK 923 INTER-LIGAND FREE ENERGY PREDICTED BY IDOCK:   12.49 KCAL/MOL
REMARK 924 INTRA-LIGAND FREE ENERGY PREDICTED BY IDOCK:    0.33 KCAL/MOL
REMARK 927      BINDING AFFINITY PREDICTED BY RF-SCORE:    0.00 PKD
ROOT
HETATM    1  O   UNL     1      -8.162  16.869  71.515  1.00  0.00     7.648 OA 
HETATM    2  C   UNL     1      -7.775  16.608  70.127  1.00  0.00     1.629 C  
HETATM    3  H   UNL     1      -9.027  16.502  71.648  1.00  0.00     0.000 HD 
HETATM    4  O   UNL     1      -8.534  14.134  70.964  1.00  0.00     3.374 OA 
HETATM    5  P   UNL     1      -8.813  17.529  68.933  1.00  0.00     0.036 P  
HETATM    6  P   UNL     1      -7.717  14.839  69.788  1.00  0.00     0.361 P  
HETATM    7  O   UNL     1      -8.800  18.779  70.028  1.00  0.00     1.082 OA 
HETATM    8  O   UNL     1     -10.145  16.831  69.604  1.00  0.00    -0.163 OA 
HETATM    9  O   UNL     1      -6.222  14.359  70.105  1.00  0.00    -0.145 OA 
HETATM   10  O   UNL     1      -8.148  14.381  68.449  1.00  0.00    -0.130 OA 
HETATM   11  O   UNL     1      -9.689  18.309  67.923  1.00  0.00    -0.284 OA 
ENDROOT
BRANCH   2  12
HETATM   12  C   UNL     1      -6.358  17.210  69.909  1.00  0.00    -0.049 C  
BRANCH  12  13
HETATM   13  N   UNL     1      -6.016  17.774  68.612  1.00  0.00    -0.184 NA 
HETATM   14  C   UNL     1      -5.899  19.131  68.398  1.00  0.00    -0.210 A  
HETATM   15  C   UNL     1      -5.638  19.276  67.057  1.00  0.00    -0.170 A  
HETATM   16  N   UNL     1      -5.582  18.055  66.455  1.00  0.00    -0.156 NA 
HETATM   17  C   UNL     1      -5.832  17.181  67.397  1.00  0.00    -0.145 A  
ENDBRANCH  12  13
ENDBRANCH   2  12
TORSDOF 2
ENDMDL
