MODEL        1
REMARK 921   NORMALIZED FREE ENERGY PREDICTED BY IDOCK:   -6.60 KCAL/MOL
REMARK 922        TOTAL FREE ENERGY PREDICTED BY IDOCK:   -8.97 KCAL/MOL
REMARK 923 INTER-LIGAND FREE ENERGY PREDICTED BY IDOCK:   -8.53 KCAL/MOL
REMARK 924 INTRA-LIGAND FREE ENERGY PREDICTED BY IDOCK:   -0.44 KCAL/MOL
REMARK 927      BINDING AFFINITY PREDICTED BY RF-SCORE:    0.00 PKD
ROOT
HETATM    1  C   UNL     1     -14.141   8.707  71.937  1.00  0.00    -0.443 C  
HETATM    2  N   UNL     1     -12.699   8.476  72.088  1.00  0.00    -0.358 NA 
HETATM    3  C   UNL     1     -12.305   7.313  71.293  1.00  0.00    -0.366 C  
ENDROOT
BRANCH   2   4
HETATM    4  C   UNL     1     -11.961   9.697  71.702  1.00  0.00    -0.394 C  
BRANCH   4   5
HETATM    5  C   UNL     1     -12.638  10.530  70.597  1.00  0.00    -0.457 C  
BRANCH   5   6
HETATM    6  C   UNL     1     -12.760  11.983  70.957  1.00  0.00    -0.337 A  
HETATM    7  C   UNL     1     -13.222  12.498  72.150  1.00  0.00    -0.403 A  
HETATM    8  N   UNL     1     -13.163  13.863  72.087  1.00  0.00    -0.408 NA 
HETATM    9  C   UNL     1     -12.665  14.260  70.869  1.00  0.00    -0.357 A  
HETATM   10  H   UNL     1     -13.447  14.494  72.835  1.00  0.00     0.000 HD 
HETATM   11  C   UNL     1     -12.419  15.544  70.370  1.00  0.00    -0.443 A  
HETATM   12  C   UNL     1     -11.903  15.650  69.073  1.00  0.00    -0.379 A  
HETATM   13  C   UNL     1     -11.645  14.517  68.293  1.00  0.00    -0.358 A  
HETATM   14  C   UNL     1     -11.880  13.240  68.833  1.00  0.00    -0.367 A  
HETATM   15  C   UNL     1     -12.406  13.104  70.136  1.00  0.00    -0.284 A  
BRANCH  13  16
HETATM   16  C   UNL     1     -11.106  14.664  66.888  1.00  0.00    -0.333 C  
BRANCH  16  17
HETATM   17  C   UNL     1     -12.062  14.136  65.819  1.00  0.00    -0.420 C  
HETATM   18  C   UNL     1     -12.199  15.021  64.595  1.00  0.00    -0.278 C  
HETATM   19  O   UNL     1     -12.551  14.102  63.549  1.00  0.00    -0.834 OA 
HETATM   20  C   UNL     1     -12.141  12.857  63.940  1.00  0.00    -0.480 C  
HETATM   21  N   UNL     1     -11.647  12.907  65.218  1.00  0.00    -0.326 NA 
HETATM   22  O   UNL     1     -12.241  11.846  63.269  1.00  0.00    -0.506 OA 
ENDBRANCH  16  17
ENDBRANCH  13  16
ENDBRANCH   5   6
ENDBRANCH   4   5
ENDBRANCH   2   4
TORSDOF 5
ENDMDL
MODEL        2
REMARK 921   NORMALIZED FREE ENERGY PREDICTED BY IDOCK:   -6.53 KCAL/MOL
REMARK 922        TOTAL FREE ENERGY PREDICTED BY IDOCK:   -8.88 KCAL/MOL
REMARK 923 INTER-LIGAND FREE ENERGY PREDICTED BY IDOCK:   -8.22 KCAL/MOL
REMARK 924 INTRA-LIGAND FREE ENERGY PREDICTED BY IDOCK:   -0.66 KCAL/MOL
REMARK 927      BINDING AFFINITY PREDICTED BY RF-SCORE:    0.00 PKD
ROOT
HETATM    1  C   UNL     1      -9.542  15.616  69.713  1.00  0.00    -0.190 C  
HETATM    2  N   UNL     1     -10.770  16.416  69.787  1.00  0.00    -0.334 NA 
HETATM    3  C   UNL     1     -11.597  16.152  68.609  1.00  0.00    -0.283 C  
ENDROOT
BRANCH   2   4
HETATM    4  C   UNL     1     -11.479  16.116  71.049  1.00  0.00    -0.382 C  
BRANCH   4   5
HETATM    5  C   UNL     1     -12.892  15.531  70.864  1.00  0.00    -0.535 C  
BRANCH   5   6
HETATM    6  C   UNL     1     -12.995  14.105  71.325  1.00  0.00    -0.426 A  
HETATM    7  C   UNL     1     -13.581  13.658  72.491  1.00  0.00    -0.570 A  
HETATM    8  N   UNL     1     -13.481  12.295  72.534  1.00  0.00    -0.563 NA 
HETATM    9  C   UNL     1     -12.839  11.831  71.410  1.00  0.00    -0.335 A  
HETATM   10  H   UNL     1     -13.831  11.708  73.291  1.00  0.00     0.000 HD 
HETATM   11  C   UNL     1     -12.530  10.522  71.023  1.00  0.00    -0.501 A  
HETATM   12  C   UNL     1     -11.859  10.344  69.808  1.00  0.00    -0.278 A  
HETATM   13  C   UNL     1     -11.501  11.433  69.004  1.00  0.00    -0.366 A  
HETATM   14  C   UNL     1     -11.848  12.734  69.410  1.00  0.00    -0.359 A  
HETATM   15  C   UNL     1     -12.519  12.942  70.634  1.00  0.00    -0.333 A  
BRANCH  13  16
HETATM   16  C   UNL     1     -10.759  11.211  67.705  1.00  0.00    -0.273 C  
BRANCH  16  17
HETATM   17  C   UNL     1     -10.967  12.338  66.694  1.00  0.00    -0.278 C  
HETATM   18  C   UNL     1      -9.827  12.529  65.711  1.00  0.00    -0.234 C  
HETATM   19  O   UNL     1     -10.467  13.098  64.558  1.00  0.00    -0.377 OA 
HETATM   20  C   UNL     1     -11.793  12.774  64.620  1.00  0.00    -0.374 C  
HETATM   21  N   UNL     1     -12.062  12.127  65.800  1.00  0.00    -0.554 NA 
HETATM   22  O   UNL     1     -12.623  13.058  63.776  1.00  0.00    -0.673 OA 
ENDBRANCH  16  17
ENDBRANCH  13  16
ENDBRANCH   5   6
ENDBRANCH   4   5
ENDBRANCH   2   4
TORSDOF 5
ENDMDL
MODEL        3
REMARK 921   NORMALIZED FREE ENERGY PREDICTED BY IDOCK:   -6.50 KCAL/MOL
REMARK 922        TOTAL FREE ENERGY PREDICTED BY IDOCK:   -8.84 KCAL/MOL
REMARK 923 INTER-LIGAND FREE ENERGY PREDICTED BY IDOCK:   -8.28 KCAL/MOL
REMARK 924 INTRA-LIGAND FREE ENERGY PREDICTED BY IDOCK:   -0.56 KCAL/MOL
REMARK 927      BINDING AFFINITY PREDICTED BY RF-SCORE:    0.00 PKD
ROOT
HETATM    1  C   UNL     1     -13.541  15.964  72.934  1.00  0.00    -0.541 C  
HETATM    2  N   UNL     1     -13.145  15.720  71.542  1.00  0.00    -0.473 NA 
HETATM    3  C   UNL     1     -11.708  15.952  71.395  1.00  0.00    -0.467 C  
ENDROOT
BRANCH   2   4
HETATM    4  C   UNL     1     -13.535  14.348  71.152  1.00  0.00    -0.306 C  
BRANCH   4   5
HETATM    5  C   UNL     1     -12.677  13.236  71.783  1.00  0.00    -0.292 C  
BRANCH   5   6
HETATM    6  C   UNL     1     -12.462  12.072  70.858  1.00  0.00    -0.384 A  
HETATM    7  C   UNL     1     -12.926  10.785  71.034  1.00  0.00    -0.332 A  
HETATM    8  N   UNL     1     -12.530  10.030  69.965  1.00  0.00    -0.506 NA 
HETATM    9  C   UNL     1     -11.811  10.799  69.080  1.00  0.00    -0.275 A  
HETATM   10  H   UNL     1     -12.737   9.039  69.842  1.00  0.00     0.000 HD 
HETATM   11  C   UNL     1     -11.226  10.458  67.856  1.00  0.00    -0.332 A  
HETATM   12  C   UNL     1     -10.542  11.461  67.160  1.00  0.00    -0.279 A  
HETATM   13  C   UNL     1     -10.437  12.763  67.666  1.00  0.00    -0.224 A  
HETATM   14  C   UNL     1     -11.057  13.079  68.888  1.00  0.00    -0.307 A  
HETATM   15  C   UNL     1     -11.748  12.085  69.614  1.00  0.00    -0.405 A  
BRANCH  13  16
HETATM   16  C   UNL     1      -9.676  13.821  66.900  1.00  0.00    -0.265 C  
BRANCH  16  17
HETATM   17  C   UNL     1     -10.550  14.998  66.472  1.00  0.00    -0.305 C  
HETATM   18  C   UNL     1      -9.801  16.299  66.249  1.00  0.00    -0.313 C  
HETATM   19  O   UNL     1     -10.611  16.996  65.288  1.00  0.00    -0.647 OA 
HETATM   20  C   UNL     1     -11.371  16.064  64.638  1.00  0.00    -0.306 C  
HETATM   21  N   UNL     1     -11.178  14.828  65.199  1.00  0.00    -0.364 NA 
HETATM   22  O   UNL     1     -12.140  16.304  63.724  1.00  0.00    -0.959 OA 
ENDBRANCH  16  17
ENDBRANCH  13  16
ENDBRANCH   5   6
ENDBRANCH   4   5
ENDBRANCH   2   4
TORSDOF 5
ENDMDL
MODEL        4
REMARK 921   NORMALIZED FREE ENERGY PREDICTED BY IDOCK:   -6.44 KCAL/MOL
REMARK 922        TOTAL FREE ENERGY PREDICTED BY IDOCK:   -8.76 KCAL/MOL
REMARK 923 INTER-LIGAND FREE ENERGY PREDICTED BY IDOCK:   -8.31 KCAL/MOL
REMARK 924 INTRA-LIGAND FREE ENERGY PREDICTED BY IDOCK:   -0.44 KCAL/MOL
REMARK 927      BINDING AFFINITY PREDICTED BY RF-SCORE:    0.00 PKD
ROOT
HETATM    1  C   UNL     1     -13.649  13.343  72.308  1.00  0.00    -0.605 C  
HETATM    2  N   UNL     1     -13.929  14.622  71.647  1.00  0.00    -0.428 NA 
HETATM    3  C   UNL     1     -13.781  15.714  72.611  1.00  0.00    -0.579 C  
ENDROOT
BRANCH   2   4
HETATM    4  C   UNL     1     -13.036  14.779  70.479  1.00  0.00    -0.286 C  
BRANCH   4   5
HETATM    5  C   UNL     1     -11.813  13.843  70.480  1.00  0.00    -0.317 C  
BRANCH   5   6
HETATM    6  C   UNL     1     -11.795  12.911  69.302  1.00  0.00    -0.363 A  
HETATM    7  C   UNL     1     -12.012  11.549  69.328  1.00  0.00    -0.330 A  
HETATM    8  N   UNL     1     -11.924  11.070  68.050  1.00  0.00    -0.761 NA 
HETATM    9  C   UNL     1     -11.654  12.096  67.176  1.00  0.00    -0.335 A  
HETATM   10  H   UNL     1     -12.041  10.093  67.784  1.00  0.00     0.000 HD 
HETATM   11  C   UNL     1     -11.493  12.079  65.786  1.00  0.00    -0.377 A  
HETATM   12  C   UNL     1     -11.217  13.294  65.148  1.00  0.00    -0.322 A  
HETATM   13  C   UNL     1     -11.099  14.489  65.869  1.00  0.00    -0.327 A  
HETATM   14  C   UNL     1     -11.290  14.475  67.262  1.00  0.00    -0.363 A  
HETATM   15  C   UNL     1     -11.563  13.263  67.931  1.00  0.00    -0.370 A  
BRANCH  13  16
HETATM   16  C   UNL     1     -10.782  15.783  65.154  1.00  0.00    -0.455 C  
BRANCH  16  17
HETATM   17  C   UNL     1     -10.349  16.902  66.101  1.00  0.00    -0.320 C  
HETATM   18  C   UNL     1      -8.848  17.042  66.276  1.00  0.00    -0.254 C  
HETATM   19  O   UNL     1      -8.674  18.429  66.606  1.00  0.00    -0.270 OA 
HETATM   20  C   UNL     1      -9.774  19.102  66.152  1.00  0.00    -0.315 C  
HETATM   21  N   UNL     1     -10.691  18.215  65.650  1.00  0.00    -0.498 NA 
HETATM   22  O   UNL     1      -9.935  20.307  66.224  1.00  0.00    -0.436 OA 
ENDBRANCH  16  17
ENDBRANCH  13  16
ENDBRANCH   5   6
ENDBRANCH   4   5
ENDBRANCH   2   4
TORSDOF 5
ENDMDL
MODEL        5
REMARK 921   NORMALIZED FREE ENERGY PREDICTED BY IDOCK:   -6.40 KCAL/MOL
REMARK 922        TOTAL FREE ENERGY PREDICTED BY IDOCK:   -8.71 KCAL/MOL
REMARK 923 INTER-LIGAND FREE ENERGY PREDICTED BY IDOCK:   -8.20 KCAL/MOL
REMARK 924 INTRA-LIGAND FREE ENERGY PREDICTED BY IDOCK:   -0.51 KCAL/MOL
REMARK 927      BINDING AFFINITY PREDICTED BY RF-SCORE:    0.00 PKD
ROOT
HETATM    1  C   UNL     1     -13.173  15.516  70.970  1.00  0.00    -0.474 C  
HETATM    2  N   UNL     1     -12.295  15.076  72.061  1.00  0.00    -0.329 NA 
HETATM    3  C   UNL     1     -11.951  16.222  72.905  1.00  0.00    -0.516 C  
ENDROOT
BRANCH   2   4
HETATM    4  C   UNL     1     -12.959  13.997  72.823  1.00  0.00    -0.378 C  
BRANCH   4   5
HETATM    5  C   UNL     1     -13.785  13.023  71.962  1.00  0.00    -0.441 C  
BRANCH   5   6
HETATM    6  C   UNL     1     -12.995  11.825  71.520  1.00  0.00    -0.446 A  
HETATM    7  C   UNL     1     -12.984  10.581  72.117  1.00  0.00    -0.263 A  
HETATM    8  N   UNL     1     -12.149   9.764  71.405  1.00  0.00    -0.373 NA 
HETATM    9  C   UNL     1     -11.608  10.449  70.342  1.00  0.00    -0.337 A  
HETATM   10  H   UNL     1     -11.956   8.789  71.630  1.00  0.00     0.000 HD 
HETATM   11  C   UNL     1     -10.723  10.018  69.349  1.00  0.00    -0.258 A  
HETATM   12  C   UNL     1     -10.332  10.947  68.377  1.00  0.00    -0.196 A  
HETATM   13  C   UNL     1     -10.803  12.266  68.395  1.00  0.00    -0.257 A  
HETATM   14  C   UNL     1     -11.711  12.660  69.394  1.00  0.00    -0.387 A  
HETATM   15  C   UNL     1     -12.116  11.745  70.389  1.00  0.00    -0.440 A  
BRANCH  13  16
HETATM   16  C   UNL     1     -10.349  13.253  67.344  1.00  0.00    -0.243 C  
BRANCH  16  17
HETATM   17  C   UNL     1     -11.402  13.509  66.266  1.00  0.00    -0.309 C  
HETATM   18  C   UNL     1     -10.852  14.017  64.946  1.00  0.00    -0.410 C  
HETATM   19  O   UNL     1     -11.817  13.567  63.982  1.00  0.00    -0.422 OA 
HETATM   20  C   UNL     1     -12.493  12.516  64.535  1.00  0.00    -0.459 C  
HETATM   21  N   UNL     1     -12.096  12.335  65.835  1.00  0.00    -0.620 NA 
HETATM   22  O   UNL     1     -13.354  11.864  63.972  1.00  0.00    -0.646 OA 
ENDBRANCH  16  17
ENDBRANCH  13  16
ENDBRANCH   5   6
ENDBRANCH   4   5
ENDBRANCH   2   4
TORSDOF 5
ENDMDL
MODEL        6
REMARK 921   NORMALIZED FREE ENERGY PREDICTED BY IDOCK:   -6.34 KCAL/MOL
REMARK 922        TOTAL FREE ENERGY PREDICTED BY IDOCK:   -8.63 KCAL/MOL
REMARK 923 INTER-LIGAND FREE ENERGY PREDICTED BY IDOCK:   -8.16 KCAL/MOL
REMARK 924 INTRA-LIGAND FREE ENERGY PREDICTED BY IDOCK:   -0.47 KCAL/MOL
REMARK 927      BINDING AFFINITY PREDICTED BY RF-SCORE:    0.00 PKD
ROOT
HETATM    1  C   UNL     1      -7.264  19.889  65.716  1.00  0.00    -0.311 C  
HETATM    2  N   UNL     1      -7.961  19.254  66.840  1.00  0.00    -0.253 NA 
HETATM    3  C   UNL     1      -7.423  19.767  68.101  1.00  0.00    -0.308 C  
ENDROOT
BRANCH   2   4
HETATM    4  C   UNL     1      -9.416  19.487  66.714  1.00  0.00    -0.354 C  
BRANCH   4   5
HETATM    5  C   UNL     1     -10.290  18.531  67.548  1.00  0.00    -0.440 C  
BRANCH   5   6
HETATM    6  C   UNL     1     -10.526  17.215  66.864  1.00  0.00    -0.274 A  
HETATM    7  C   UNL     1     -10.290  16.924  65.537  1.00  0.00    -0.177 A  
HETATM    8  N   UNL     1     -10.621  15.616  65.312  1.00  0.00    -0.405 NA 
HETATM    9  C   UNL     1     -11.070  15.034  66.474  1.00  0.00    -0.329 A  
HETATM   10  H   UNL     1     -10.546  15.141  64.414  1.00  0.00     0.000 HD 
HETATM   11  C   UNL     1     -11.500  13.726  66.721  1.00  0.00    -0.367 A  
HETATM   12  C   UNL     1     -11.911  13.410  68.021  1.00  0.00    -0.357 A  
HETATM   13  C   UNL     1     -11.901  14.365  69.044  1.00  0.00    -0.358 A  
HETATM   14  C   UNL     1     -11.441  15.665  68.769  1.00  0.00    -0.382 A  
HETATM   15  C   UNL     1     -11.026  16.013  67.465  1.00  0.00    -0.261 A  
BRANCH  13  16
HETATM   16  C   UNL     1     -12.369  13.999  70.434  1.00  0.00    -0.429 C  
BRANCH  16  17
HETATM   17  C   UNL     1     -12.819  15.208  71.254  1.00  0.00    -0.391 C  
HETATM   18  C   UNL     1     -14.257  15.151  71.736  1.00  0.00    -0.578 C  
HETATM   19  O   UNL     1     -14.247  15.950  72.929  1.00  0.00    -0.497 OA 
HETATM   20  C   UNL     1     -12.958  15.994  73.384  1.00  0.00    -0.570 C  
HETATM   21  N   UNL     1     -12.126  15.364  72.495  1.00  0.00    -0.386 NA 
HETATM   22  O   UNL     1     -12.596  16.550  74.406  1.00  0.00    -0.733 OA 
ENDBRANCH  16  17
ENDBRANCH  13  16
ENDBRANCH   5   6
ENDBRANCH   4   5
ENDBRANCH   2   4
TORSDOF 5
ENDMDL
MODEL        7
REMARK 921   NORMALIZED FREE ENERGY PREDICTED BY IDOCK:   -6.26 KCAL/MOL
REMARK 922        TOTAL FREE ENERGY PREDICTED BY IDOCK:   -8.53 KCAL/MOL
REMARK 923 INTER-LIGAND FREE ENERGY PREDICTED BY IDOCK:   -8.00 KCAL/MOL
REMARK 924 INTRA-LIGAND FREE ENERGY PREDICTED BY IDOCK:   -0.53 KCAL/MOL
REMARK 927      BINDING AFFINITY PREDICTED BY RF-SCORE:    0.00 PKD
ROOT
HETATM    1  C   UNL     1     -10.351   7.473  73.445  1.00  0.00    -0.350 C  
HETATM    2  N   UNL     1     -10.333   6.947  72.076  1.00  0.00    -0.198 NA 
HETATM    3  C   UNL     1     -11.511   6.106  71.860  1.00  0.00    -0.300 C  
ENDROOT
BRANCH   2   4
HETATM    4  C   UNL     1     -10.262   8.070  71.117  1.00  0.00    -0.193 C  
BRANCH   4   5
HETATM    5  C   UNL     1     -11.611   8.449  70.476  1.00  0.00    -0.136 C  
BRANCH   5   6
HETATM    6  C   UNL     1     -12.206   9.694  71.068  1.00  0.00    -0.409 A  
HETATM    7  C   UNL     1     -12.943   9.781  72.230  1.00  0.00    -0.333 A  
HETATM    8  N   UNL     1     -13.289  11.089  72.430  1.00  0.00    -0.465 NA 
HETATM    9  C   UNL     1     -12.788  11.872  71.418  1.00  0.00    -0.307 A  
HETATM   10  H   UNL     1     -13.839  11.433  73.217  1.00  0.00     0.000 HD 
HETATM   11  C   UNL     1     -12.879  13.253  71.216  1.00  0.00    -0.398 A  
HETATM   12  C   UNL     1     -12.265  13.787  70.078  1.00  0.00    -0.407 A  
HETATM   13  C   UNL     1     -11.585  12.973  69.164  1.00  0.00    -0.368 A  
HETATM   14  C   UNL     1     -11.491  11.591  69.408  1.00  0.00    -0.376 A  
HETATM   15  C   UNL     1     -12.106  11.026  70.545  1.00  0.00    -0.470 A  
BRANCH  13  16
HETATM   16  C   UNL     1     -10.946  13.576  67.932  1.00  0.00    -0.275 C  
BRANCH  16  17
HETATM   17  C   UNL     1     -11.933  13.779  66.783  1.00  0.00    -0.426 C  
HETATM   18  C   UNL     1     -11.437  14.684  65.671  1.00  0.00    -0.340 C  
HETATM   19  O   UNL     1     -12.150  14.221  64.513  1.00  0.00    -0.441 OA 
HETATM   20  C   UNL     1     -12.549  12.937  64.762  1.00  0.00    -0.425 C  
HETATM   21  N   UNL     1     -12.229  12.588  66.049  1.00  0.00    -0.620 NA 
HETATM   22  O   UNL     1     -13.140  12.223  63.971  1.00  0.00    -0.764 OA 
ENDBRANCH  16  17
ENDBRANCH  13  16
ENDBRANCH   5   6
ENDBRANCH   4   5
ENDBRANCH   2   4
TORSDOF 5
ENDMDL
MODEL        8
REMARK 921   NORMALIZED FREE ENERGY PREDICTED BY IDOCK:   -6.25 KCAL/MOL
REMARK 922        TOTAL FREE ENERGY PREDICTED BY IDOCK:   -8.52 KCAL/MOL
REMARK 923 INTER-LIGAND FREE ENERGY PREDICTED BY IDOCK:   -8.10 KCAL/MOL
REMARK 924 INTRA-LIGAND FREE ENERGY PREDICTED BY IDOCK:   -0.42 KCAL/MOL
REMARK 927      BINDING AFFINITY PREDICTED BY RF-SCORE:    0.00 PKD
ROOT
HETATM    1  C   UNL     1     -10.160   9.062  71.181  1.00  0.00    -0.295 C  
HETATM    2  N   UNL     1     -11.339   8.433  71.788  1.00  0.00    -0.280 NA 
HETATM    3  C   UNL     1     -10.954   7.778  73.039  1.00  0.00    -0.381 C  
ENDROOT
BRANCH   2   4
HETATM    4  C   UNL     1     -12.393   9.450  71.987  1.00  0.00    -0.345 C  
BRANCH   4   5
HETATM    5  C   UNL     1     -12.593  10.404  70.795  1.00  0.00    -0.462 C  
BRANCH   5   6
HETATM    6  C   UNL     1     -12.862  11.819  71.222  1.00  0.00    -0.409 A  
HETATM    7  C   UNL     1     -13.627  12.222  72.297  1.00  0.00    -0.196 A  
HETATM    8  N   UNL     1     -13.612  13.588  72.354  1.00  0.00    -0.581 NA 
HETATM    9  C   UNL     1     -12.844  14.097  71.334  1.00  0.00    -0.355 A  
HETATM   10  H   UNL     1     -14.099  14.148  73.052  1.00  0.00     0.000 HD 
HETATM   11  C   UNL     1     -12.536  15.423  71.011  1.00  0.00    -0.491 A  
HETATM   12  C   UNL     1     -11.719  15.649  69.897  1.00  0.00    -0.372 A  
HETATM   13  C   UNL     1     -11.228  14.591  69.124  1.00  0.00    -0.294 A  
HETATM   14  C   UNL     1     -11.536  13.269  69.489  1.00  0.00    -0.299 A  
HETATM   15  C   UNL     1     -12.362  13.012  70.604  1.00  0.00    -0.391 A  
BRANCH  13  16
HETATM   16  C   UNL     1     -10.363  14.868  67.914  1.00  0.00    -0.237 C  
BRANCH  16  17
HETATM   17  C   UNL     1     -11.158  15.364  66.708  1.00  0.00    -0.244 C  
HETATM   18  C   UNL     1     -10.352  16.155  65.695  1.00  0.00    -0.382 C  
HETATM   19  O   UNL     1     -11.052  15.937  64.460  1.00  0.00    -0.495 OA 
HETATM   20  C   UNL     1     -11.783  14.790  64.597  1.00  0.00    -0.422 C  
HETATM   21  N   UNL     1     -11.679  14.320  65.881  1.00  0.00    -0.363 NA 
HETATM   22  O   UNL     1     -12.462  14.285  63.721  1.00  0.00    -0.810 OA 
ENDBRANCH  16  17
ENDBRANCH  13  16
ENDBRANCH   5   6
ENDBRANCH   4   5
ENDBRANCH   2   4
TORSDOF 5
ENDMDL
MODEL        9
REMARK 921   NORMALIZED FREE ENERGY PREDICTED BY IDOCK:   -6.23 KCAL/MOL
REMARK 922        TOTAL FREE ENERGY PREDICTED BY IDOCK:   -8.50 KCAL/MOL
REMARK 923 INTER-LIGAND FREE ENERGY PREDICTED BY IDOCK:   -8.41 KCAL/MOL
REMARK 924 INTRA-LIGAND FREE ENERGY PREDICTED BY IDOCK:   -0.09 KCAL/MOL
REMARK 927      BINDING AFFINITY PREDICTED BY RF-SCORE:    0.00 PKD
ROOT
HETATM    1  C   UNL     1     -12.417  15.913  74.203  1.00  0.00    -0.643 C  
HETATM    2  N   UNL     1     -12.839  15.172  73.009  1.00  0.00    -0.425 NA 
HETATM    3  C   UNL     1     -14.143  15.664  72.563  1.00  0.00    -0.479 C  
ENDROOT
BRANCH   2   4
HETATM    4  C   UNL     1     -11.804  15.295  71.961  1.00  0.00    -0.434 C  
BRANCH   4   5
HETATM    5  C   UNL     1     -12.286  14.938  70.542  1.00  0.00    -0.388 C  
BRANCH   5   6
HETATM    6  C   UNL     1     -12.254  13.460  70.273  1.00  0.00    -0.405 A  
HETATM    7  C   UNL     1     -12.811  12.470  71.056  1.00  0.00    -0.157 A  
HETATM    8  N   UNL     1     -12.576  11.261  70.461  1.00  0.00    -0.274 NA 
HETATM    9  C   UNL     1     -11.873  11.436  69.292  1.00  0.00    -0.349 A  
HETATM   10  H   UNL     1     -12.879  10.361  70.830  1.00  0.00     0.000 HD 
HETATM   11  C   UNL     1     -11.428  10.495  68.357  1.00  0.00    -0.285 A  
HETATM   12  C   UNL     1     -10.722  10.967  67.245  1.00  0.00    -0.312 A  
HETATM   13  C   UNL     1     -10.461  12.331  67.068  1.00  0.00    -0.237 A  
HETATM   14  C   UNL     1     -10.943  13.253  68.014  1.00  0.00    -0.266 A  
HETATM   15  C   UNL     1     -11.652  12.805  69.149  1.00  0.00    -0.373 A  
BRANCH  13  16
HETATM   16  C   UNL     1      -9.679  12.809  65.866  1.00  0.00    -0.203 C  
BRANCH  16  17
HETATM   17  C   UNL     1     -10.549  13.510  64.823  1.00  0.00    -0.417 C  
HETATM   18  C   UNL     1     -12.040  13.273  64.975  1.00  0.00    -0.408 C  
HETATM   19  O   UNL     1     -12.631  14.447  64.397  1.00  0.00    -0.668 OA 
HETATM   20  C   UNL     1     -11.689  15.437  64.423  1.00  0.00    -0.258 C  
HETATM   21  N   UNL     1     -10.496  14.937  64.881  1.00  0.00    -0.405 NA 
HETATM   22  O   UNL     1     -11.868  16.583  64.051  1.00  0.00    -1.022 OA 
ENDBRANCH  16  17
ENDBRANCH  13  16
ENDBRANCH   5   6
ENDBRANCH   4   5
ENDBRANCH   2   4
TORSDOF 5
ENDMDL
MODEL       10
REMARK 921   NORMALIZED FREE ENERGY PREDICTED BY IDOCK:   -6.21 KCAL/MOL
REMARK 922        TOTAL FREE ENERGY PREDICTED BY IDOCK:   -8.46 KCAL/MOL
REMARK 923 INTER-LIGAND FREE ENERGY PREDICTED BY IDOCK:   -8.22 KCAL/MOL
REMARK 924 INTRA-LIGAND FREE ENERGY PREDICTED BY IDOCK:   -0.25 KCAL/MOL
REMARK 927      BINDING AFFINITY PREDICTED BY RF-SCORE:    0.00 PKD
ROOT
HETATM    1  C   UNL     1     -11.812   7.129  70.952  1.00  0.00    -0.339 C  
HETATM    2  N   UNL     1     -11.818   8.129  72.026  1.00  0.00    -0.316 NA 
HETATM    3  C   UNL     1     -10.806   7.781  73.024  1.00  0.00    -0.389 C  
ENDROOT
BRANCH   2   4
HETATM    4  C   UNL     1     -11.599   9.473  71.449  1.00  0.00    -0.395 C  
BRANCH   4   5
HETATM    5  C   UNL     1     -12.882  10.182  70.979  1.00  0.00    -0.474 C  
BRANCH   5   6
HETATM    6  C   UNL     1     -12.760  11.679  71.002  1.00  0.00    -0.395 A  
HETATM    7  C   UNL     1     -13.271  12.531  71.959  1.00  0.00    -0.419 A  
HETATM    8  N   UNL     1     -12.932  13.814  71.626  1.00  0.00    -0.352 NA 
HETATM    9  C   UNL     1     -12.199  13.824  70.463  1.00  0.00    -0.369 A  
HETATM   10  H   UNL     1     -13.185  14.642  72.163  1.00  0.00     0.000 HD 
HETATM   11  C   UNL     1     -11.634  14.894  69.762  1.00  0.00    -0.339 A  
HETATM   12  C   UNL     1     -10.932  14.604  68.586  1.00  0.00    -0.266 A  
HETATM   13  C   UNL     1     -10.799  13.292  68.118  1.00  0.00    -0.270 A  
HETATM   14  C   UNL     1     -11.359  12.236  68.859  1.00  0.00    -0.337 A  
HETATM   15  C   UNL     1     -12.077  12.500  70.045  1.00  0.00    -0.337 A  
BRANCH  13  16
HETATM   16  C   UNL     1     -10.051  13.011  66.834  1.00  0.00    -0.243 C  
BRANCH  16  17
HETATM   17  C   UNL     1     -10.876  13.303  65.582  1.00  0.00    -0.279 C  
HETATM   18  C   UNL     1     -12.367  13.064  65.732  1.00  0.00    -0.416 C  
HETATM   19  O   UNL     1     -12.952  13.966  64.779  1.00  0.00    -0.686 OA 
HETATM   20  C   UNL     1     -12.038  14.951  64.528  1.00  0.00    -0.407 C  
HETATM   21  N   UNL     1     -10.862  14.675  65.179  1.00  0.00    -0.373 NA 
HETATM   22  O   UNL     1     -12.224  15.908  63.799  1.00  0.00    -0.817 OA 
ENDBRANCH  16  17
ENDBRANCH  13  16
ENDBRANCH   5   6
ENDBRANCH   4   5
ENDBRANCH   2   4
TORSDOF 5
ENDMDL
MODEL       11
REMARK 921   NORMALIZED FREE ENERGY PREDICTED BY IDOCK:   -6.21 KCAL/MOL
REMARK 922        TOTAL FREE ENERGY PREDICTED BY IDOCK:   -8.46 KCAL/MOL
REMARK 923 INTER-LIGAND FREE ENERGY PREDICTED BY IDOCK:   -7.97 KCAL/MOL
REMARK 924 INTRA-LIGAND FREE ENERGY PREDICTED BY IDOCK:   -0.49 KCAL/MOL
REMARK 927      BINDING AFFINITY PREDICTED BY RF-SCORE:    0.00 PKD
ROOT
HETATM    1  C   UNL     1     -10.658  14.437  64.932  1.00  0.00    -0.434 C  
HETATM    2  N   UNL     1     -11.908  13.674  65.027  1.00  0.00    -0.344 NA 
HETATM    3  C   UNL     1     -12.132  12.945  63.778  1.00  0.00    -0.508 C  
ENDROOT
BRANCH   2   4
HETATM    4  C   UNL     1     -11.848  12.775  66.199  1.00  0.00    -0.425 C  
BRANCH   4   5
HETATM    5  C   UNL     1     -10.858  13.217  67.293  1.00  0.00    -0.270 C  
BRANCH   5   6
HETATM    6  C   UNL     1     -11.537  13.892  68.451  1.00  0.00    -0.368 A  
HETATM    7  C   UNL     1     -11.780  15.243  68.586  1.00  0.00    -0.346 A  
HETATM    8  N   UNL     1     -12.429  15.452  69.772  1.00  0.00    -0.591 NA 
HETATM    9  C   UNL     1     -12.622  14.257  70.424  1.00  0.00    -0.343 A  
HETATM   10  H   UNL     1     -12.726  16.362  70.122  1.00  0.00     0.000 HD 
HETATM   11  C   UNL     1     -13.245  13.986  71.647  1.00  0.00    -0.442 A  
HETATM   12  C   UNL     1     -13.294  12.654  72.071  1.00  0.00    -0.555 A  
HETATM   13  C   UNL     1     -12.737  11.621  71.308  1.00  0.00    -0.444 A  
HETATM   14  C   UNL     1     -12.139  11.924  70.071  1.00  0.00    -0.366 A  
HETATM   15  C   UNL     1     -12.070  13.260  69.622  1.00  0.00    -0.331 A  
BRANCH  13  16
HETATM   16  C   UNL     1     -12.788  10.193  71.802  1.00  0.00    -0.554 C  
BRANCH  16  17
HETATM   17  C   UNL     1     -11.852   9.258  71.036  1.00  0.00    -0.307 C  
HETATM   18  C   UNL     1     -10.479   9.085  71.656  1.00  0.00    -0.355 C  
HETATM   19  O   UNL     1     -10.070   7.781  71.215  1.00  0.00    -0.179 OA 
HETATM   20  C   UNL     1     -11.199   7.085  70.884  1.00  0.00    -0.282 C  
HETATM   21  N   UNL     1     -12.297   7.900  70.983  1.00  0.00    -0.222 NA 
HETATM   22  O   UNL     1     -11.222   5.925  70.514  1.00  0.00    -0.305 OA 
ENDBRANCH  16  17
ENDBRANCH  13  16
ENDBRANCH   5   6
ENDBRANCH   4   5
ENDBRANCH   2   4
TORSDOF 5
ENDMDL
MODEL       12
REMARK 921   NORMALIZED FREE ENERGY PREDICTED BY IDOCK:   -6.21 KCAL/MOL
REMARK 922        TOTAL FREE ENERGY PREDICTED BY IDOCK:   -8.46 KCAL/MOL
REMARK 923 INTER-LIGAND FREE ENERGY PREDICTED BY IDOCK:   -7.85 KCAL/MOL
REMARK 924 INTRA-LIGAND FREE ENERGY PREDICTED BY IDOCK:   -0.61 KCAL/MOL
REMARK 927      BINDING AFFINITY PREDICTED BY RF-SCORE:    0.00 PKD
ROOT
HETATM    1  C   UNL     1     -12.157  12.492  64.926  1.00  0.00    -0.440 C  
HETATM    2  N   UNL     1     -12.074  12.573  66.389  1.00  0.00    -0.597 NA 
HETATM    3  C   UNL     1     -10.994  11.707  66.865  1.00  0.00    -0.292 C  
ENDROOT
BRANCH   2   4
HETATM    4  C   UNL     1     -11.885  13.982  66.795  1.00  0.00    -0.424 C  
BRANCH   4   5
HETATM    5  C   UNL     1     -10.962  14.176  68.013  1.00  0.00    -0.269 C  
BRANCH   5   6
HETATM    6  C   UNL     1     -11.715  14.554  69.257  1.00  0.00    -0.350 A  
HETATM    7  C   UNL     1     -12.033  15.832  69.669  1.00  0.00    -0.317 A  
HETATM    8  N   UNL     1     -12.734  15.749  70.840  1.00  0.00    -0.491 NA 
HETATM    9  C   UNL     1     -12.887  14.434  71.210  1.00  0.00    -0.342 A  
HETATM   10  H   UNL     1     -13.090  16.548  71.364  1.00  0.00     0.000 HD 
HETATM   11  C   UNL     1     -13.539  13.878  72.316  1.00  0.00    -0.642 A  
HETATM   12  C   UNL     1     -13.534  12.484  72.441  1.00  0.00    -0.372 A  
HETATM   13  C   UNL     1     -12.896  11.667  71.499  1.00  0.00    -0.469 A  
HETATM   14  C   UNL     1     -12.271  12.257  70.386  1.00  0.00    -0.371 A  
HETATM   15  C   UNL     1     -12.256  13.660  70.239  1.00  0.00    -0.423 A  
BRANCH  13  16
HETATM   16  C   UNL     1     -12.891  10.165  71.671  1.00  0.00    -0.559 C  
BRANCH  16  17
HETATM   17  C   UNL     1     -11.510   9.542  71.474  1.00  0.00    -0.395 C  
HETATM   18  C   UNL     1     -11.160   8.443  72.460  1.00  0.00    -0.326 C  
HETATM   19  O   UNL     1     -10.229   7.623  71.737  1.00  0.00    -0.186 OA 
HETATM   20  C   UNL     1     -10.427   7.852  70.404  1.00  0.00    -0.218 C  
HETATM   21  N   UNL     1     -11.352   8.850  70.233  1.00  0.00    -0.210 NA 
HETATM   22  O   UNL     1      -9.837   7.285  69.502  1.00  0.00    -0.161 OA 
ENDBRANCH  16  17
ENDBRANCH  13  16
ENDBRANCH   5   6
ENDBRANCH   4   5
ENDBRANCH   2   4
TORSDOF 5
ENDMDL
MODEL       13
REMARK 921   NORMALIZED FREE ENERGY PREDICTED BY IDOCK:   -6.18 KCAL/MOL
REMARK 922        TOTAL FREE ENERGY PREDICTED BY IDOCK:   -8.43 KCAL/MOL
REMARK 923 INTER-LIGAND FREE ENERGY PREDICTED BY IDOCK:   -8.05 KCAL/MOL
REMARK 924 INTRA-LIGAND FREE ENERGY PREDICTED BY IDOCK:   -0.38 KCAL/MOL
REMARK 927      BINDING AFFINITY PREDICTED BY RF-SCORE:    0.00 PKD
ROOT
HETATM    1  C   UNL     1     -10.677   8.648  72.042  1.00  0.00    -0.357 C  
HETATM    2  N   UNL     1     -11.836   8.452  71.163  1.00  0.00    -0.287 NA 
HETATM    3  C   UNL     1     -12.467   7.166  71.466  1.00  0.00    -0.381 C  
ENDROOT
BRANCH   2   4
HETATM    4  C   UNL     1     -12.771   9.587  71.319  1.00  0.00    -0.332 C  
BRANCH   4   5
HETATM    5  C   UNL     1     -12.510  10.765  70.362  1.00  0.00    -0.430 C  
BRANCH   5   6
HETATM    6  C   UNL     1     -12.646  12.101  71.035  1.00  0.00    -0.359 A  
HETATM    7  C   UNL     1     -13.371  12.376  72.176  1.00  0.00    -0.403 A  
HETATM    8  N   UNL     1     -13.229  13.704  72.472  1.00  0.00    -0.494 NA 
HETATM    9  C   UNL     1     -12.417  14.313  71.544  1.00  0.00    -0.356 A  
HETATM   10  H   UNL     1     -13.663  14.174  73.266  1.00  0.00     0.000 HD 
HETATM   11  C   UNL     1     -11.988  15.641  71.455  1.00  0.00    -0.476 A  
HETATM   12  C   UNL     1     -11.154  15.985  70.384  1.00  0.00    -0.376 A  
HETATM   13  C   UNL     1     -10.763  15.039  69.429  1.00  0.00    -0.267 A  
HETATM   14  C   UNL     1     -11.192  13.707  69.562  1.00  0.00    -0.205 A  
HETATM   15  C   UNL     1     -12.039  13.334  70.628  1.00  0.00    -0.361 A  
BRANCH  13  16
HETATM   16  C   UNL     1      -9.876  15.444  68.273  1.00  0.00    -0.213 C  
BRANCH  16  17
HETATM   17  C   UNL     1     -10.584  16.342  67.259  1.00  0.00    -0.298 C  
HETATM   18  C   UNL     1      -9.733  17.466  66.700  1.00  0.00    -0.290 C  
HETATM   19  O   UNL     1     -10.305  17.714  65.406  1.00  0.00    -0.617 OA 
HETATM   20  C   UNL     1     -10.982  16.587  65.033  1.00  0.00    -0.210 C  
HETATM   21  N   UNL     1     -10.971  15.673  66.056  1.00  0.00    -0.264 NA 
HETATM   22  O   UNL     1     -11.551  16.433  63.966  1.00  0.00    -1.071 OA 
ENDBRANCH  16  17
ENDBRANCH  13  16
ENDBRANCH   5   6
ENDBRANCH   4   5
ENDBRANCH   2   4
TORSDOF 5
ENDMDL
MODEL       14
REMARK 921   NORMALIZED FREE ENERGY PREDICTED BY IDOCK:   -6.17 KCAL/MOL
REMARK 922        TOTAL FREE ENERGY PREDICTED BY IDOCK:   -8.41 KCAL/MOL
REMARK 923 INTER-LIGAND FREE ENERGY PREDICTED BY IDOCK:   -7.96 KCAL/MOL
REMARK 924 INTRA-LIGAND FREE ENERGY PREDICTED BY IDOCK:   -0.45 KCAL/MOL
REMARK 927      BINDING AFFINITY PREDICTED BY RF-SCORE:    0.00 PKD
ROOT
HETATM    1  C   UNL     1      -8.651  18.552  68.383  1.00  0.00    -0.331 C  
HETATM    2  N   UNL     1      -9.983  19.084  68.074  1.00  0.00    -0.348 NA 
HETATM    3  C   UNL     1      -9.849  20.334  67.325  1.00  0.00    -0.452 C  
ENDROOT
BRANCH   2   4
HETATM    4  C   UNL     1     -10.760  18.066  67.334  1.00  0.00    -0.318 C  
BRANCH   4   5
HETATM    5  C   UNL     1      -9.950  17.284  66.283  1.00  0.00    -0.311 C  
BRANCH   5   6
HETATM    6  C   UNL     1     -10.743  16.181  65.642  1.00  0.00    -0.321 A  
HETATM    7  C   UNL     1     -11.287  16.190  64.374  1.00  0.00    -0.201 A  
HETATM    8  N   UNL     1     -11.919  14.996  64.164  1.00  0.00    -0.832 NA 
HETATM    9  C   UNL     1     -11.799  14.193  65.274  1.00  0.00    -0.367 A  
HETATM   10  H   UNL     1     -12.409  14.738  63.308  1.00  0.00     0.000 HD 
HETATM   11  C   UNL     1     -12.270  12.896  65.504  1.00  0.00    -0.527 A  
HETATM   12  C   UNL     1     -11.997  12.317  66.749  1.00  0.00    -0.230 A  
HETATM   13  C   UNL     1     -11.283  13.006  67.736  1.00  0.00    -0.313 A  
HETATM   14  C   UNL     1     -10.803  14.299  67.464  1.00  0.00    -0.284 A  
HETATM   15  C   UNL     1     -11.069  14.910  66.219  1.00  0.00    -0.340 A  
BRANCH  13  16
HETATM   16  C   UNL     1     -11.020  12.361  69.078  1.00  0.00    -0.247 C  
BRANCH  16  17
HETATM   17  C   UNL     1     -12.280  12.212  69.931  1.00  0.00    -0.170 C  
HETATM   18  C   UNL     1     -12.271  11.029  70.880  1.00  0.00    -0.367 C  
HETATM   19  O   UNL     1     -13.136  11.444  71.948  1.00  0.00    -0.492 OA 
HETATM   20  C   UNL     1     -13.189  12.809  71.929  1.00  0.00    -0.412 C  
HETATM   21  N   UNL     1     -12.497  13.289  70.846  1.00  0.00    -0.366 NA 
HETATM   22  O   UNL     1     -13.797  13.497  72.729  1.00  0.00    -0.730 OA 
ENDBRANCH  16  17
ENDBRANCH  13  16
ENDBRANCH   5   6
ENDBRANCH   4   5
ENDBRANCH   2   4
TORSDOF 5
ENDMDL
MODEL       15
REMARK 921   NORMALIZED FREE ENERGY PREDICTED BY IDOCK:   -6.15 KCAL/MOL
REMARK 922        TOTAL FREE ENERGY PREDICTED BY IDOCK:   -8.39 KCAL/MOL
REMARK 923 INTER-LIGAND FREE ENERGY PREDICTED BY IDOCK:   -7.85 KCAL/MOL
REMARK 924 INTRA-LIGAND FREE ENERGY PREDICTED BY IDOCK:   -0.53 KCAL/MOL
REMARK 927      BINDING AFFINITY PREDICTED BY RF-SCORE:    0.00 PKD
ROOT
HETATM    1  C   UNL     1     -11.136   7.011  67.269  1.00  0.00    -0.232 C  
HETATM    2  N   UNL     1     -10.574   6.186  68.345  1.00  0.00    -0.235 NA 
HETATM    3  C   UNL     1      -9.153   6.495  68.506  1.00  0.00    -0.127 C  
ENDROOT
BRANCH   2   4
HETATM    4  C   UNL     1     -11.342   6.408  69.589  1.00  0.00    -0.412 C  
BRANCH   4   5
HETATM    5  C   UNL     1     -10.624   7.283  70.634  1.00  0.00    -0.240 C  
BRANCH   5   6
HETATM    6  C   UNL     1     -11.529   8.313  71.249  1.00  0.00    -0.314 A  
HETATM    7  C   UNL     1     -12.380   8.125  72.319  1.00  0.00    -0.323 A  
HETATM    8  N   UNL     1     -13.017   9.307  72.580  1.00  0.00    -0.419 NA 
HETATM    9  C   UNL     1     -12.598  10.277  71.700  1.00  0.00    -0.432 A  
HETATM   10  H   UNL     1     -13.703   9.448  73.321  1.00  0.00     0.000 HD 
HETATM   11  C   UNL     1     -12.964  11.623  71.599  1.00  0.00    -0.483 A  
HETATM   12  C   UNL     1     -12.369  12.386  70.588  1.00  0.00    -0.367 A  
HETATM   13  C   UNL     1     -11.443  11.827  69.699  1.00  0.00    -0.341 A  
HETATM   14  C   UNL     1     -11.079  10.476  69.842  1.00  0.00    -0.371 A  
HETATM   15  C   UNL     1     -11.668   9.683  70.850  1.00  0.00    -0.412 A  
BRANCH  13  16
HETATM   16  C   UNL     1     -10.831  12.671  68.604  1.00  0.00    -0.281 C  
BRANCH  16  17
HETATM   17  C   UNL     1     -11.851  13.143  67.568  1.00  0.00    -0.360 C  
HETATM   18  C   UNL     1     -11.442  14.379  66.789  1.00  0.00    -0.370 C  
HETATM   19  O   UNL     1     -12.141  14.240  65.542  1.00  0.00    -0.377 OA 
HETATM   20  C   UNL     1     -12.443  12.916  65.384  1.00  0.00    -0.454 C  
HETATM   21  N   UNL     1     -12.075  12.215  66.504  1.00  0.00    -0.582 NA 
HETATM   22  O   UNL     1     -12.996  12.437  64.411  1.00  0.00    -0.721 OA 
ENDBRANCH  16  17
ENDBRANCH  13  16
ENDBRANCH   5   6
ENDBRANCH   4   5
ENDBRANCH   2   4
TORSDOF 5
ENDMDL
MODEL       16
REMARK 921   NORMALIZED FREE ENERGY PREDICTED BY IDOCK:   -6.11 KCAL/MOL
REMARK 922        TOTAL FREE ENERGY PREDICTED BY IDOCK:   -8.34 KCAL/MOL
REMARK 923 INTER-LIGAND FREE ENERGY PREDICTED BY IDOCK:   -8.45 KCAL/MOL
REMARK 924 INTRA-LIGAND FREE ENERGY PREDICTED BY IDOCK:    0.11 KCAL/MOL
REMARK 927      BINDING AFFINITY PREDICTED BY RF-SCORE:    0.00 PKD
ROOT
HETATM    1  C   UNL     1      -9.384  19.635  68.382  1.00  0.00    -0.351 C  
HETATM    2  N   UNL     1     -10.563  19.136  67.664  1.00  0.00    -0.453 NA 
HETATM    3  C   UNL     1     -10.450  19.474  66.245  1.00  0.00    -0.512 C  
ENDROOT
BRANCH   2   4
HETATM    4  C   UNL     1     -10.696  17.680  67.886  1.00  0.00    -0.337 C  
BRANCH   4   5
HETATM    5  C   UNL     1     -10.178  17.193  69.253  1.00  0.00    -0.231 C  
BRANCH   5   6
HETATM    6  C   UNL     1     -10.820  15.908  69.692  1.00  0.00    -0.314 A  
HETATM    7  C   UNL     1     -11.453  15.675  70.896  1.00  0.00    -0.390 A  
HETATM    8  N   UNL     1     -11.914  14.388  70.903  1.00  0.00    -0.358 NA 
HETATM    9  C   UNL     1     -11.598  13.764  69.719  1.00  0.00    -0.257 A  
HETATM   10  H   UNL     1     -12.419  13.953  71.674  1.00  0.00     0.000 HD 
HETATM   11  C   UNL     1     -11.876  12.465  69.281  1.00  0.00    -0.361 A  
HETATM   12  C   UNL     1     -11.422  12.095  68.009  1.00  0.00    -0.380 A  
HETATM   13  C   UNL     1     -10.709  12.987  67.199  1.00  0.00    -0.266 A  
HETATM   14  C   UNL     1     -10.467  14.294  67.659  1.00  0.00    -0.248 A  
HETATM   15  C   UNL     1     -10.908  14.691  68.940  1.00  0.00    -0.257 A  
BRANCH  13  16
HETATM   16  C   UNL     1     -10.215  12.554  65.838  1.00  0.00    -0.280 C  
BRANCH  16  17
HETATM   17  C   UNL     1     -10.756  13.418  64.699  1.00  0.00    -0.411 C  
HETATM   18  C   UNL     1     -12.251  13.300  64.466  1.00  0.00    -0.400 C  
HETATM   19  O   UNL     1     -12.605  14.569  63.894  1.00  0.00    -0.827 OA 
HETATM   20  C   UNL     1     -11.637  15.466  64.249  1.00  0.00    -0.191 C  
HETATM   21  N   UNL     1     -10.628  14.824  64.921  1.00  0.00    -0.428 NA 
HETATM   22  O   UNL     1     -11.646  16.652  63.971  1.00  0.00    -1.197 OA 
ENDBRANCH  16  17
ENDBRANCH  13  16
ENDBRANCH   5   6
ENDBRANCH   4   5
ENDBRANCH   2   4
TORSDOF 5
ENDMDL
MODEL       17
REMARK 921   NORMALIZED FREE ENERGY PREDICTED BY IDOCK:   -6.11 KCAL/MOL
REMARK 922        TOTAL FREE ENERGY PREDICTED BY IDOCK:   -8.33 KCAL/MOL
REMARK 923 INTER-LIGAND FREE ENERGY PREDICTED BY IDOCK:   -7.93 KCAL/MOL
REMARK 924 INTRA-LIGAND FREE ENERGY PREDICTED BY IDOCK:   -0.40 KCAL/MOL
REMARK 927      BINDING AFFINITY PREDICTED BY RF-SCORE:    0.00 PKD
ROOT
HETATM    1  C   UNL     1     -10.904   6.132  68.761  1.00  0.00    -0.336 C  
HETATM    2  N   UNL     1     -11.201   6.070  70.197  1.00  0.00    -0.369 NA 
HETATM    3  C   UNL     1      -9.958   5.878  70.945  1.00  0.00    -0.187 C  
ENDROOT
BRANCH   2   4
HETATM    4  C   UNL     1     -11.918   7.297  70.605  1.00  0.00    -0.220 C  
BRANCH   4   5
HETATM    5  C   UNL     1     -11.207   8.609  70.223  1.00  0.00    -0.196 C  
BRANCH   5   6
HETATM    6  C   UNL     1     -11.890   9.824  70.783  1.00  0.00    -0.400 A  
HETATM    7  C   UNL     1     -12.616   9.892  71.954  1.00  0.00    -0.381 A  
HETATM    8  N   UNL     1     -13.061  11.175  72.116  1.00  0.00    -0.519 NA 
HETATM    9  C   UNL     1     -12.638  11.960  71.069  1.00  0.00    -0.283 A  
HETATM   10  H   UNL     1     -13.626  11.503  72.899  1.00  0.00     0.000 HD 
HETATM   11  C   UNL     1     -12.841  13.322  70.823  1.00  0.00    -0.194 A  
HETATM   12  C   UNL     1     -12.286  13.862  69.657  1.00  0.00    -0.374 A  
HETATM   13  C   UNL     1     -11.556  13.073  68.760  1.00  0.00    -0.350 A  
HETATM   14  C   UNL     1     -11.350  11.712  69.049  1.00  0.00    -0.337 A  
HETATM   15  C   UNL     1     -11.903  11.140  70.215  1.00  0.00    -0.455 A  
BRANCH  13  16
HETATM   16  C   UNL     1     -10.985  13.681  67.499  1.00  0.00    -0.282 C  
BRANCH  16  17
HETATM   17  C   UNL     1     -12.007  13.790  66.368  1.00  0.00    -0.438 C  
HETATM   18  C   UNL     1     -11.540  14.581  65.161  1.00  0.00    -0.371 C  
HETATM   19  O   UNL     1     -12.295  14.022  64.075  1.00  0.00    -0.646 OA 
HETATM   20  C   UNL     1     -12.698  12.772  64.454  1.00  0.00    -0.289 C  
HETATM   21  N   UNL     1     -12.340  12.540  65.758  1.00  0.00    -0.626 NA 
HETATM   22  O   UNL     1     -13.322  11.996  63.754  1.00  0.00    -0.681 OA 
ENDBRANCH  16  17
ENDBRANCH  13  16
ENDBRANCH   5   6
ENDBRANCH   4   5
ENDBRANCH   2   4
TORSDOF 5
ENDMDL
MODEL       18
REMARK 921   NORMALIZED FREE ENERGY PREDICTED BY IDOCK:   -6.06 KCAL/MOL
REMARK 922        TOTAL FREE ENERGY PREDICTED BY IDOCK:   -8.26 KCAL/MOL
REMARK 923 INTER-LIGAND FREE ENERGY PREDICTED BY IDOCK:   -7.62 KCAL/MOL
REMARK 924 INTRA-LIGAND FREE ENERGY PREDICTED BY IDOCK:   -0.64 KCAL/MOL
REMARK 927      BINDING AFFINITY PREDICTED BY RF-SCORE:    0.00 PKD
ROOT
HETATM    1  C   UNL     1     -13.783  13.320  72.400  1.00  0.00    -0.578 C  
HETATM    2  N   UNL     1     -13.690  14.757  72.681  1.00  0.00    -0.458 NA 
HETATM    3  C   UNL     1     -12.638  14.995  73.671  1.00  0.00    -0.533 C  
ENDROOT
BRANCH   2   4
HETATM    4  C   UNL     1     -13.450  15.492  71.420  1.00  0.00    -0.499 C  
BRANCH   4   5
HETATM    5  C   UNL     1     -11.963  15.714  71.084  1.00  0.00    -0.457 C  
BRANCH   5   6
HETATM    6  C   UNL     1     -11.648  15.446  69.640  1.00  0.00    -0.344 A  
HETATM    7  C   UNL     1     -11.373  16.387  68.670  1.00  0.00    -0.289 A  
HETATM    8  N   UNL     1     -11.126  15.738  67.491  1.00  0.00    -0.296 NA 
HETATM    9  C   UNL     1     -11.230  14.379  67.667  1.00  0.00    -0.313 A  
HETATM   10  H   UNL     1     -10.897  16.197  66.610  1.00  0.00     0.000 HD 
HETATM   11  C   UNL     1     -11.050  13.334  66.754  1.00  0.00    -0.313 A  
HETATM   12  C   UNL     1     -11.227  12.026  67.219  1.00  0.00    -0.371 A  
HETATM   13  C   UNL     1     -11.577  11.763  68.548  1.00  0.00    -0.380 A  
HETATM   14  C   UNL     1     -11.727  12.834  69.447  1.00  0.00    -0.380 A  
HETATM   15  C   UNL     1     -11.561  14.164  69.004  1.00  0.00    -0.342 A  
BRANCH  13  16
HETATM   16  C   UNL     1     -11.779  10.339  69.017  1.00  0.00    -0.083 C  
BRANCH  16  17
HETATM   17  C   UNL     1     -11.642  10.180  70.530  1.00  0.00    -0.329 C  
HETATM   18  C   UNL     1     -12.862   9.602  71.223  1.00  0.00    -0.350 C  
HETATM   19  O   UNL     1     -12.318   8.960  72.387  1.00  0.00    -0.367 OA 
HETATM   20  C   UNL     1     -10.998   8.706  72.140  1.00  0.00    -0.364 C  
HETATM   21  N   UNL     1     -10.637   9.245  70.931  1.00  0.00    -0.270 NA 
HETATM   22  O   UNL     1     -10.243   8.127  72.899  1.00  0.00    -0.307 OA 
ENDBRANCH  16  17
ENDBRANCH  13  16
ENDBRANCH   5   6
ENDBRANCH   4   5
ENDBRANCH   2   4
TORSDOF 5
ENDMDL
MODEL       19
REMARK 921   NORMALIZED FREE ENERGY PREDICTED BY IDOCK:   -6.05 KCAL/MOL
REMARK 922        TOTAL FREE ENERGY PREDICTED BY IDOCK:   -8.25 KCAL/MOL
REMARK 923 INTER-LIGAND FREE ENERGY PREDICTED BY IDOCK:   -7.59 KCAL/MOL
REMARK 924 INTRA-LIGAND FREE ENERGY PREDICTED BY IDOCK:   -0.66 KCAL/MOL
REMARK 927      BINDING AFFINITY PREDICTED BY RF-SCORE:    0.00 PKD
ROOT
HETATM    1  C   UNL     1     -14.401   8.493  72.042  1.00  0.00    -0.447 C  
HETATM    2  N   UNL     1     -13.316   9.302  71.476  1.00  0.00    -0.368 NA 
HETATM    3  C   UNL     1     -13.342  10.639  72.070  1.00  0.00    -0.304 C  
ENDROOT
BRANCH   2   4
HETATM    4  C   UNL     1     -12.024   8.616  71.694  1.00  0.00    -0.326 C  
BRANCH   4   5
HETATM    5  C   UNL     1     -10.799   9.375  71.149  1.00  0.00    -0.427 C  
BRANCH   5   6
HETATM    6  C   UNL     1     -10.831   9.532  69.656  1.00  0.00    -0.255 A  
HETATM    7  C   UNL     1     -10.624   8.540  68.720  1.00  0.00    -0.133 A  
HETATM    8  N   UNL     1     -10.751   9.086  67.472  1.00  0.00    -0.438 NA 
HETATM    9  C   UNL     1     -11.042  10.426  67.568  1.00  0.00    -0.267 A  
HETATM   10  H   UNL     1     -10.646   8.572  66.598  1.00  0.00     0.000 HD 
HETATM   11  C   UNL     1     -11.269  11.374  66.564  1.00  0.00    -0.276 A  
HETATM   12  C   UNL     1     -11.545  12.687  66.960  1.00  0.00    -0.431 A  
HETATM   13  C   UNL     1     -11.590  13.050  68.311  1.00  0.00    -0.375 A  
HETATM   14  C   UNL     1     -11.382  12.068  69.296  1.00  0.00    -0.330 A  
HETATM   15  C   UNL     1     -11.095  10.737  68.925  1.00  0.00    -0.307 A  
BRANCH  13  16
HETATM   16  C   UNL     1     -11.873  14.482  68.708  1.00  0.00    -0.350 C  
BRANCH  16  17
HETATM   17  C   UNL     1     -11.951  14.681  70.221  1.00  0.00    -0.308 C  
HETATM   18  C   UNL     1     -11.262  15.931  70.736  1.00  0.00    -0.370 C  
HETATM   19  O   UNL     1     -11.981  16.244  71.939  1.00  0.00    -0.494 OA 
HETATM   20  C   UNL     1     -13.208  15.649  71.852  1.00  0.00    -0.453 C  
HETATM   21  N   UNL     1     -13.278  14.882  70.717  1.00  0.00    -0.358 NA 
HETATM   22  O   UNL     1     -14.093  15.747  72.683  1.00  0.00    -0.578 OA 
ENDBRANCH  16  17
ENDBRANCH  13  16
ENDBRANCH   5   6
ENDBRANCH   4   5
ENDBRANCH   2   4
TORSDOF 5
ENDMDL
MODEL       20
REMARK 921   NORMALIZED FREE ENERGY PREDICTED BY IDOCK:   -6.05 KCAL/MOL
REMARK 922        TOTAL FREE ENERGY PREDICTED BY IDOCK:   -8.25 KCAL/MOL
REMARK 923 INTER-LIGAND FREE ENERGY PREDICTED BY IDOCK:   -7.71 KCAL/MOL
REMARK 924 INTRA-LIGAND FREE ENERGY PREDICTED BY IDOCK:   -0.54 KCAL/MOL
REMARK 927      BINDING AFFINITY PREDICTED BY RF-SCORE:    0.00 PKD
ROOT
HETATM    1  C   UNL     1      -8.918  15.256  66.373  1.00  0.00    -0.304 C  
HETATM    2  N   UNL     1     -10.344  15.595  66.458  1.00  0.00    -0.283 NA 
HETATM    3  C   UNL     1     -10.535  16.998  66.088  1.00  0.00    -0.271 C  
ENDROOT
BRANCH   2   4
HETATM    4  C   UNL     1     -11.120  14.676  65.598  1.00  0.00    -0.338 C  
BRANCH   4   5
HETATM    5  C   UNL     1     -12.187  13.852  66.344  1.00  0.00    -0.487 C  
BRANCH   5   6
HETATM    6  C   UNL     1     -11.650  12.554  66.877  1.00  0.00    -0.436 A  
HETATM    7  C   UNL     1     -10.953  11.599  66.166  1.00  0.00    -0.288 A  
HETATM    8  N   UNL     1     -10.629  10.576  67.013  1.00  0.00    -0.253 NA 
HETATM    9  C   UNL     1     -11.099  10.841  68.278  1.00  0.00    -0.271 A  
HETATM   10  H   UNL     1     -10.114   9.738  66.746  1.00  0.00     0.000 HD 
HETATM   11  C   UNL     1     -10.992  10.092  69.455  1.00  0.00    -0.295 A  
HETATM   12  C   UNL     1     -11.579  10.615  70.614  1.00  0.00    -0.432 A  
HETATM   13  C   UNL     1     -12.256  11.840  70.603  1.00  0.00    -0.443 A  
HETATM   14  C   UNL     1     -12.324  12.579  69.408  1.00  0.00     0.043 A  
HETATM   15  C   UNL     1     -11.747  12.073  68.224  1.00  0.00    -0.396 A  
BRANCH  13  16
HETATM   16  C   UNL     1     -12.896  12.370  71.866  1.00  0.00    -0.315 C  
BRANCH  16  17
HETATM   17  C   UNL     1     -12.974  13.896  71.906  1.00  0.00    -0.354 C  
HETATM   18  C   UNL     1     -14.380  14.463  71.847  1.00  0.00    -0.545 C  
HETATM   19  O   UNL     1     -14.266  15.722  72.528  1.00  0.00    -0.552 OA 
HETATM   20  C   UNL     1     -13.163  15.657  73.332  1.00  0.00    -0.514 C  
HETATM   21  N   UNL     1     -12.501  14.474  73.125  1.00  0.00    -0.298 NA 
HETATM   22  O   UNL     1     -12.796  16.539  74.088  1.00  0.00    -0.683 OA 
ENDBRANCH  16  17
ENDBRANCH  13  16
ENDBRANCH   5   6
ENDBRANCH   4   5
ENDBRANCH   2   4
TORSDOF 5
ENDMDL
MODEL       21
REMARK 921   NORMALIZED FREE ENERGY PREDICTED BY IDOCK:   -6.00 KCAL/MOL
REMARK 922        TOTAL FREE ENERGY PREDICTED BY IDOCK:   -8.19 KCAL/MOL
REMARK 923 INTER-LIGAND FREE ENERGY PREDICTED BY IDOCK:   -7.82 KCAL/MOL
REMARK 924 INTRA-LIGAND FREE ENERGY PREDICTED BY IDOCK:   -0.37 KCAL/MOL
REMARK 927      BINDING AFFINITY PREDICTED BY RF-SCORE:    0.00 PKD
ROOT
HETATM    1  C   UNL     1     -10.680  12.423  63.655  1.00  0.00    -0.455 C  
HETATM    2  N   UNL     1     -10.870  11.287  64.563  1.00  0.00    -0.315 NA 
HETATM    3  C   UNL     1      -9.608  10.557  64.703  1.00  0.00    -0.292 C  
ENDROOT
BRANCH   2   4
HETATM    4  C   UNL     1     -11.384  11.773  65.861  1.00  0.00    -0.263 C  
BRANCH   4   5
HETATM    5  C   UNL     1     -10.356  11.740  67.008  1.00  0.00    -0.243 C  
BRANCH   5   6
HETATM    6  C   UNL     1     -10.690  10.717  68.057  1.00  0.00    -0.270 A  
HETATM    7  C   UNL     1     -10.310   9.391  68.062  1.00  0.00    -0.220 A  
HETATM    8  N   UNL     1     -10.802   8.802  69.194  1.00  0.00    -0.412 NA 
HETATM    9  C   UNL     1     -11.499   9.720  69.942  1.00  0.00    -0.140 A  
HETATM   10  H   UNL     1     -10.670   7.823  69.446  1.00  0.00     0.000 HD 
HETATM   11  C   UNL     1     -12.156   9.573  71.168  1.00  0.00    -0.429 A  
HETATM   12  C   UNL     1     -12.796  10.697  71.703  1.00  0.00    -0.570 A  
HETATM   13  C   UNL     1     -12.789  11.929  71.038  1.00  0.00    -0.291 A  
HETATM   14  C   UNL     1     -12.099  12.050  69.818  1.00  0.00    -0.317 A  
HETATM   15  C   UNL     1     -11.450  10.931  69.253  1.00  0.00    -0.372 A  
BRANCH  13  16
HETATM   16  C   UNL     1     -13.505  13.121  71.631  1.00  0.00    -0.320 C  
BRANCH  16  17
HETATM   17  C   UNL     1     -12.552  14.202  72.140  1.00  0.00    -0.240 C  
HETATM   18  C   UNL     1     -12.498  15.456  71.287  1.00  0.00    -0.397 C  
HETATM   19  O   UNL     1     -12.126  16.484  72.219  1.00  0.00    -0.449 OA 
HETATM   20  C   UNL     1     -12.457  16.045  73.470  1.00  0.00    -0.571 C  
HETATM   21  N   UNL     1     -12.917  14.754  73.407  1.00  0.00    -0.542 NA 
HETATM   22  O   UNL     1     -12.321  16.688  74.495  1.00  0.00    -0.714 OA 
ENDBRANCH  16  17
ENDBRANCH  13  16
ENDBRANCH   5   6
ENDBRANCH   4   5
ENDBRANCH   2   4
TORSDOF 5
ENDMDL
MODEL       22
REMARK 921   NORMALIZED FREE ENERGY PREDICTED BY IDOCK:   -5.96 KCAL/MOL
REMARK 922        TOTAL FREE ENERGY PREDICTED BY IDOCK:   -8.14 KCAL/MOL
REMARK 923 INTER-LIGAND FREE ENERGY PREDICTED BY IDOCK:   -7.66 KCAL/MOL
REMARK 924 INTRA-LIGAND FREE ENERGY PREDICTED BY IDOCK:   -0.48 KCAL/MOL
REMARK 927      BINDING AFFINITY PREDICTED BY RF-SCORE:    0.00 PKD
ROOT
HETATM    1  C   UNL     1     -12.018   9.712  71.296  1.00  0.00    -0.380 C  
HETATM    2  N   UNL     1     -10.813   9.028  71.780  1.00  0.00    -0.357 NA 
HETATM    3  C   UNL     1     -11.196   7.967  72.713  1.00  0.00    -0.405 C  
ENDROOT
BRANCH   2   4
HETATM    4  C   UNL     1     -10.042   8.513  70.629  1.00  0.00    -0.192 C  
BRANCH   4   5
HETATM    5  C   UNL     1     -10.894   7.824  69.547  1.00  0.00    -0.157 C  
BRANCH   5   6
HETATM    6  C   UNL     1     -10.315   7.974  68.169  1.00  0.00    -0.250 A  
HETATM    7  C   UNL     1      -9.657   7.002  67.444  1.00  0.00    -0.135 A  
HETATM    8  N   UNL     1      -9.298   7.530  66.234  1.00  0.00    -0.311 NA 
HETATM    9  C   UNL     1      -9.711   8.838  66.146  1.00  0.00    -0.250 A  
HETATM   10  H   UNL     1      -8.796   7.026  65.504  1.00  0.00     0.000 HD 
HETATM   11  C   UNL     1      -9.577   9.759  65.101  1.00  0.00    -0.356 A  
HETATM   12  C   UNL     1     -10.100  11.042  65.293  1.00  0.00    -0.332 A  
HETATM   13  C   UNL     1     -10.733  11.403  66.489  1.00  0.00    -0.325 A  
HETATM   14  C   UNL     1     -10.873  10.447  67.510  1.00  0.00    -0.358 A  
HETATM   15  C   UNL     1     -10.349   9.147  67.346  1.00  0.00    -0.330 A  
BRANCH  13  16
HETATM   16  C   UNL     1     -11.272  12.804  66.675  1.00  0.00    -0.344 C  
BRANCH  16  17
HETATM   17  C   UNL     1     -11.292  13.616  65.380  1.00  0.00    -0.301 C  
HETATM   18  C   UNL     1     -12.646  13.698  64.701  1.00  0.00    -0.242 C  
HETATM   19  O   UNL     1     -12.589  14.940  63.981  1.00  0.00    -0.832 OA 
HETATM   20  C   UNL     1     -11.631  15.715  64.571  1.00  0.00    -0.262 C  
HETATM   21  N   UNL     1     -10.994  15.004  65.556  1.00  0.00    -0.342 NA 
HETATM   22  O   UNL     1     -11.352  16.854  64.242  1.00  0.00    -1.202 OA 
ENDBRANCH  16  17
ENDBRANCH  13  16
ENDBRANCH   5   6
ENDBRANCH   4   5
ENDBRANCH   2   4
TORSDOF 5
ENDMDL
MODEL       23
REMARK 921   NORMALIZED FREE ENERGY PREDICTED BY IDOCK:   -5.94 KCAL/MOL
REMARK 922        TOTAL FREE ENERGY PREDICTED BY IDOCK:   -8.11 KCAL/MOL
REMARK 923 INTER-LIGAND FREE ENERGY PREDICTED BY IDOCK:   -7.83 KCAL/MOL
REMARK 924 INTRA-LIGAND FREE ENERGY PREDICTED BY IDOCK:   -0.28 KCAL/MOL
REMARK 927      BINDING AFFINITY PREDICTED BY RF-SCORE:    0.00 PKD
ROOT
HETATM    1  C   UNL     1     -11.997  15.714  71.805  1.00  0.00    -0.440 C  
HETATM    2  N   UNL     1     -12.575  14.372  71.942  1.00  0.00    -0.341 NA 
HETATM    3  C   UNL     1     -14.001  14.483  72.252  1.00  0.00    -0.502 C  
ENDROOT
BRANCH   2   4
HETATM    4  C   UNL     1     -12.328  13.600  70.706  1.00  0.00    -0.371 C  
BRANCH   4   5
HETATM    5  C   UNL     1     -12.400  12.071  70.882  1.00  0.00    -0.384 C  
BRANCH   5   6
HETATM    6  C   UNL     1     -11.537  11.332  69.900  1.00  0.00    -0.413 A  
HETATM    7  C   UNL     1     -10.702  10.269  70.176  1.00  0.00    -0.278 A  
HETATM    8  N   UNL     1     -10.105   9.871  69.012  1.00  0.00    -0.179 NA 
HETATM    9  C   UNL     1     -10.534  10.654  67.966  1.00  0.00    -0.196 A  
HETATM   10  H   UNL     1      -9.437   9.105  68.931  1.00  0.00     0.000 HD 
HETATM   11  C   UNL     1     -10.205  10.605  66.607  1.00  0.00    -0.284 A  
HETATM   12  C   UNL     1     -10.803  11.543  65.758  1.00  0.00    -0.319 A  
HETATM   13  C   UNL     1     -11.696  12.506  66.245  1.00  0.00    -0.462 A  
HETATM   14  C   UNL     1     -12.023  12.513  67.612  1.00  0.00    -0.287 A  
HETATM   15  C   UNL     1     -11.431  11.582  68.492  1.00  0.00    -0.354 A  
BRANCH  13  16
HETATM   16  C   UNL     1     -12.311  13.519  65.307  1.00  0.00    -0.506 C  
BRANCH  16  17
HETATM   17  C   UNL     1     -11.318  14.580  64.832  1.00  0.00    -0.394 C  
HETATM   18  C   UNL     1     -11.919  15.678  63.975  1.00  0.00     0.087 C  
HETATM   19  O   UNL     1     -11.055  16.801  64.208  1.00  0.00    -1.106 OA 
HETATM   20  C   UNL     1     -10.416  16.590  65.398  1.00  0.00    -0.269 C  
HETATM   21  N   UNL     1     -10.736  15.350  65.888  1.00  0.00    -0.325 NA 
HETATM   22  O   UNL     1      -9.642  17.370  65.923  1.00  0.00    -0.509 OA 
ENDBRANCH  16  17
ENDBRANCH  13  16
ENDBRANCH   5   6
ENDBRANCH   4   5
ENDBRANCH   2   4
TORSDOF 5
ENDMDL
MODEL       24
REMARK 921   NORMALIZED FREE ENERGY PREDICTED BY IDOCK:   -5.93 KCAL/MOL
REMARK 922        TOTAL FREE ENERGY PREDICTED BY IDOCK:   -8.10 KCAL/MOL
REMARK 923 INTER-LIGAND FREE ENERGY PREDICTED BY IDOCK:   -7.69 KCAL/MOL
REMARK 924 INTRA-LIGAND FREE ENERGY PREDICTED BY IDOCK:   -0.41 KCAL/MOL
REMARK 927      BINDING AFFINITY PREDICTED BY RF-SCORE:    0.00 PKD
ROOT
HETATM    1  C   UNL     1     -12.430   7.619  71.454  1.00  0.00    -0.333 C  
HETATM    2  N   UNL     1     -11.484   8.320  72.330  1.00  0.00    -0.382 NA 
HETATM    3  C   UNL     1     -10.757   7.345  73.145  1.00  0.00    -0.387 C  
ENDROOT
BRANCH   2   4
HETATM    4  C   UNL     1     -10.579   9.155  71.512  1.00  0.00    -0.358 C  
BRANCH   4   5
HETATM    5  C   UNL     1     -11.287   9.997  70.434  1.00  0.00    -0.392 C  
BRANCH   5   6
HETATM    6  C   UNL     1     -10.751   9.742  69.054  1.00  0.00    -0.238 A  
HETATM    7  C   UNL     1     -10.009   8.652  68.648  1.00  0.00    -0.183 A  
HETATM    8  N   UNL     1      -9.729   8.787  67.317  1.00  0.00    -0.171 NA 
HETATM    9  C   UNL     1     -10.276   9.952  66.832  1.00  0.00    -0.240 A  
HETATM   10  H   UNL     1      -9.191   8.121  66.763  1.00  0.00     0.000 HD 
HETATM   11  C   UNL     1     -10.256  10.490  65.541  1.00  0.00    -0.325 A  
HETATM   12  C   UNL     1     -10.906  11.712  65.335  1.00  0.00    -0.336 A  
HETATM   13  C   UNL     1     -11.551  12.383  66.381  1.00  0.00    -0.442 A  
HETATM   14  C   UNL     1     -11.573  11.804  67.662  1.00  0.00    -0.364 A  
HETATM   15  C   UNL     1     -10.921  10.575  67.899  1.00  0.00    -0.352 A  
BRANCH  13  16
HETATM   16  C   UNL     1     -12.228  13.712  66.132  1.00  0.00    -0.490 C  
BRANCH  16  17
HETATM   17  C   UNL     1     -11.366  14.685  65.328  1.00  0.00    -0.354 C  
HETATM   18  C   UNL     1     -12.136  15.587  64.383  1.00  0.00    -0.139 C  
HETATM   19  O   UNL     1     -11.304  16.752  64.272  1.00  0.00    -1.170 OA 
HETATM   20  C   UNL     1     -10.493  16.785  65.372  1.00  0.00    -0.193 C  
HETATM   21  N   UNL     1     -10.679  15.653  66.125  1.00  0.00    -0.314 NA 
HETATM   22  O   UNL     1      -9.691  17.666  65.624  1.00  0.00    -0.525 OA 
ENDBRANCH  16  17
ENDBRANCH  13  16
ENDBRANCH   5   6
ENDBRANCH   4   5
ENDBRANCH   2   4
TORSDOF 5
ENDMDL
MODEL       25
REMARK 921   NORMALIZED FREE ENERGY PREDICTED BY IDOCK:   -5.90 KCAL/MOL
REMARK 922        TOTAL FREE ENERGY PREDICTED BY IDOCK:   -8.06 KCAL/MOL
REMARK 923 INTER-LIGAND FREE ENERGY PREDICTED BY IDOCK:   -7.50 KCAL/MOL
REMARK 924 INTRA-LIGAND FREE ENERGY PREDICTED BY IDOCK:   -0.57 KCAL/MOL
REMARK 927      BINDING AFFINITY PREDICTED BY RF-SCORE:    0.00 PKD
ROOT
HETATM    1  C   UNL     1      -8.652  17.493  66.788  1.00  0.00    -0.253 C  
HETATM    2  N   UNL     1     -10.098  17.343  66.586  1.00  0.00    -0.305 NA 
HETATM    3  C   UNL     1     -10.355  16.179  65.738  1.00  0.00    -0.378 C  
ENDROOT
BRANCH   2   4
HETATM    4  C   UNL     1     -10.771  17.241  67.899  1.00  0.00    -0.351 C  
BRANCH   4   5
HETATM    5  C   UNL     1      -9.933  16.553  68.994  1.00  0.00    -0.275 C  
BRANCH   5   6
HETATM    6  C   UNL     1     -10.721  15.543  69.779  1.00  0.00    -0.301 A  
HETATM    7  C   UNL     1     -11.253  15.716  71.040  1.00  0.00    -0.364 A  
HETATM    8  N   UNL     1     -11.908  14.570  71.396  1.00  0.00    -0.448 NA 
HETATM    9  C   UNL     1     -11.821  13.640  70.387  1.00  0.00    -0.237 A  
HETATM   10  H   UNL     1     -12.392  14.426  72.282  1.00  0.00     0.000 HD 
HETATM   11  C   UNL     1     -12.345  12.346  70.305  1.00  0.00    -0.264 A  
HETATM   12  C   UNL     1     -12.092  11.614  69.139  1.00  0.00    -0.315 A  
HETATM   13  C   UNL     1     -11.336  12.148  68.089  1.00  0.00    -0.349 A  
HETATM   14  C   UNL     1     -10.843  13.461  68.194  1.00  0.00    -0.273 A  
HETATM   15  C   UNL     1     -11.079  14.220  69.360  1.00  0.00    -0.283 A  
BRANCH  13  16
HETATM   16  C   UNL     1     -11.062  11.326  66.850  1.00  0.00    -0.339 C  
BRANCH  16  17
HETATM   17  C   UNL     1     -10.867  12.178  65.596  1.00  0.00    -0.284 C  
HETATM   18  C   UNL     1     -10.587  11.390  64.329  1.00  0.00    -0.355 C  
HETATM   19  O   UNL     1     -11.082  12.242  63.284  1.00  0.00    -0.427 OA 
HETATM   20  C   UNL     1     -11.991  13.096  63.844  1.00  0.00    -0.488 C  
HETATM   21  N   UNL     1     -12.028  12.915  65.203  1.00  0.00    -0.386 NA 
HETATM   22  O   UNL     1     -12.641  13.925  63.232  1.00  0.00    -0.824 OA 
ENDBRANCH  16  17
ENDBRANCH  13  16
ENDBRANCH   5   6
ENDBRANCH   4   5
ENDBRANCH   2   4
TORSDOF 5
ENDMDL
MODEL       26
REMARK 921   NORMALIZED FREE ENERGY PREDICTED BY IDOCK:   -5.89 KCAL/MOL
REMARK 922        TOTAL FREE ENERGY PREDICTED BY IDOCK:   -8.05 KCAL/MOL
REMARK 923 INTER-LIGAND FREE ENERGY PREDICTED BY IDOCK:   -7.60 KCAL/MOL
REMARK 924 INTRA-LIGAND FREE ENERGY PREDICTED BY IDOCK:   -0.44 KCAL/MOL
REMARK 927      BINDING AFFINITY PREDICTED BY RF-SCORE:    0.00 PKD
ROOT
HETATM    1  C   UNL     1      -8.445   6.638  73.826  1.00  0.00    -0.122 C  
HETATM    2  N   UNL     1      -9.581   6.021  73.130  1.00  0.00    -0.143 NA 
HETATM    3  C   UNL     1      -9.901   4.738  73.757  1.00  0.00    -0.146 C  
ENDROOT
BRANCH   2   4
HETATM    4  C   UNL     1     -10.729   6.953  73.139  1.00  0.00    -0.308 C  
BRANCH   4   5
HETATM    5  C   UNL     1     -11.605   6.900  71.873  1.00  0.00    -0.321 C  
BRANCH   5   6
HETATM    6  C   UNL     1     -11.228   7.946  70.863  1.00  0.00    -0.284 A  
HETATM    7  C   UNL     1     -10.401   7.775  69.772  1.00  0.00    -0.221 A  
HETATM    8  N   UNL     1     -10.324   8.961  69.095  1.00  0.00    -0.217 NA 
HETATM    9  C   UNL     1     -11.090   9.916  69.721  1.00  0.00    -0.254 A  
HETATM   10  H   UNL     1      -9.776   9.115  68.249  1.00  0.00     0.000 HD 
HETATM   11  C   UNL     1     -11.319  11.254  69.382  1.00  0.00    -0.360 A  
HETATM   12  C   UNL     1     -12.156  12.002  70.217  1.00  0.00    -0.395 A  
HETATM   13  C   UNL     1     -12.744  11.441  71.358  1.00  0.00    -0.489 A  
HETATM   14  C   UNL     1     -12.512  10.087  71.657  1.00  0.00    -0.513 A  
HETATM   15  C   UNL     1     -11.667   9.311  70.835  1.00  0.00    -0.360 A  
BRANCH  13  16
HETATM   16  C   UNL     1     -13.628  12.281  72.252  1.00  0.00    -0.299 C  
BRANCH  16  17
HETATM   17  C   UNL     1     -13.248  13.761  72.255  1.00  0.00    -0.467 C  
HETATM   18  C   UNL     1     -14.385  14.711  71.929  1.00  0.00    -0.571 C  
HETATM   19  O   UNL     1     -14.016  15.925  72.602  1.00  0.00    -0.547 OA 
HETATM   20  C   UNL     1     -13.139  15.594  73.597  1.00  0.00    -0.454 C  
HETATM   21  N   UNL     1     -12.840  14.257  73.532  1.00  0.00    -0.402 NA 
HETATM   22  O   UNL     1     -12.658  16.379  74.395  1.00  0.00    -0.730 OA 
ENDBRANCH  16  17
ENDBRANCH  13  16
ENDBRANCH   5   6
ENDBRANCH   4   5
ENDBRANCH   2   4
TORSDOF 5
ENDMDL
MODEL       27
REMARK 921   NORMALIZED FREE ENERGY PREDICTED BY IDOCK:   -5.88 KCAL/MOL
REMARK 922        TOTAL FREE ENERGY PREDICTED BY IDOCK:   -8.03 KCAL/MOL
REMARK 923 INTER-LIGAND FREE ENERGY PREDICTED BY IDOCK:   -7.77 KCAL/MOL
REMARK 924 INTRA-LIGAND FREE ENERGY PREDICTED BY IDOCK:   -0.27 KCAL/MOL
REMARK 927      BINDING AFFINITY PREDICTED BY RF-SCORE:    0.00 PKD
ROOT
HETATM    1  C   UNL     1     -13.995  13.677  72.304  1.00  0.00    -0.563 C  
HETATM    2  N   UNL     1     -13.876  15.105  71.985  1.00  0.00    -0.452 NA 
HETATM    3  C   UNL     1     -13.293  15.813  73.126  1.00  0.00    -0.587 C  
ENDROOT
BRANCH   2   4
HETATM    4  C   UNL     1     -13.075  15.270  70.753  1.00  0.00    -0.414 C  
BRANCH   4   5
HETATM    5  C   UNL     1     -12.187  14.062  70.402  1.00  0.00    -0.433 C  
BRANCH   5   6
HETATM    6  C   UNL     1     -11.833  14.006  68.943  1.00  0.00    -0.390 A  
HETATM    7  C   UNL     1     -11.937  12.908  68.114  1.00  0.00    -0.261 A  
HETATM    8  N   UNL     1     -11.531  13.271  66.860  1.00  0.00    -0.322 NA 
HETATM    9  C   UNL     1     -11.162  14.596  66.845  1.00  0.00    -0.343 A  
HETATM   10  H   UNL     1     -11.505  12.649  66.052  1.00  0.00     0.000 HD 
HETATM   11  C   UNL     1     -10.699  15.392  65.791  1.00  0.00    -0.360 A  
HETATM   12  C   UNL     1     -10.392  16.728  66.072  1.00  0.00    -0.346 A  
HETATM   13  C   UNL     1     -10.535  17.257  67.360  1.00  0.00    -0.338 A  
HETATM   14  C   UNL     1     -11.025  16.436  68.392  1.00  0.00    -0.353 A  
HETATM   15  C   UNL     1     -11.337  15.083  68.138  1.00  0.00    -0.343 A  
BRANCH  13  16
HETATM   16  C   UNL     1     -10.177  18.700  67.637  1.00  0.00    -0.425 C  
BRANCH  16  17
HETATM   17  C   UNL     1      -8.671  18.957  67.630  1.00  0.00    -0.288 C  
HETATM   18  C   UNL     1      -8.266  20.360  67.216  1.00  0.00    -0.336 C  
HETATM   19  O   UNL     1      -7.010  20.561  67.883  1.00  0.00    -0.300 OA 
HETATM   20  C   UNL     1      -6.958  19.690  68.936  1.00  0.00    -0.347 C  
HETATM   21  N   UNL     1      -8.056  18.869  68.918  1.00  0.00    -0.295 NA 
HETATM   22  O   UNL     1      -6.050  19.624  69.744  1.00  0.00    -0.272 OA 
ENDBRANCH  16  17
ENDBRANCH  13  16
ENDBRANCH   5   6
ENDBRANCH   4   5
ENDBRANCH   2   4
TORSDOF 5
ENDMDL
MODEL       28
REMARK 921   NORMALIZED FREE ENERGY PREDICTED BY IDOCK:   -5.85 KCAL/MOL
REMARK 922        TOTAL FREE ENERGY PREDICTED BY IDOCK:   -8.00 KCAL/MOL
REMARK 923 INTER-LIGAND FREE ENERGY PREDICTED BY IDOCK:   -7.62 KCAL/MOL
REMARK 924 INTRA-LIGAND FREE ENERGY PREDICTED BY IDOCK:   -0.38 KCAL/MOL
REMARK 927      BINDING AFFINITY PREDICTED BY RF-SCORE:    0.00 PKD
ROOT
HETATM    1  C   UNL     1     -11.054   8.512  72.199  1.00  0.00    -0.366 C  
HETATM    2  N   UNL     1     -12.169   8.409  71.250  1.00  0.00    -0.296 NA 
HETATM    3  C   UNL     1     -12.929   7.188  71.519  1.00  0.00    -0.383 C  
ENDROOT
BRANCH   2   4
HETATM    4  C   UNL     1     -13.008   9.624  71.342  1.00  0.00    -0.385 C  
BRANCH   4   5
HETATM    5  C   UNL     1     -12.493  10.819  70.518  1.00  0.00    -0.447 C  
BRANCH   5   6
HETATM    6  C   UNL     1     -12.761  12.140  71.180  1.00  0.00    -0.351 A  
HETATM    7  C   UNL     1     -13.512  12.351  72.318  1.00  0.00    -0.323 A  
HETATM    8  N   UNL     1     -13.502  13.688  72.604  1.00  0.00    -0.639 NA 
HETATM    9  C   UNL     1     -12.752  14.367  71.673  1.00  0.00    -0.344 A  
HETATM   10  H   UNL     1     -13.982  14.119  73.394  1.00  0.00     0.000 HD 
HETATM   11  C   UNL     1     -12.456  15.731  71.573  1.00  0.00    -0.515 A  
HETATM   12  C   UNL     1     -11.658  16.147  70.502  1.00  0.00    -0.322 A  
HETATM   13  C   UNL     1     -11.173  15.237  69.554  1.00  0.00    -0.289 A  
HETATM   14  C   UNL     1     -11.469  13.870  69.696  1.00  0.00    -0.310 A  
HETATM   15  C   UNL     1     -12.277  13.424  70.764  1.00  0.00    -0.409 A  
BRANCH  13  16
HETATM   16  C   UNL     1     -10.329  15.719  68.396  1.00  0.00    -0.233 C  
BRANCH  16  17
HETATM   17  C   UNL     1     -10.099  17.230  68.407  1.00  0.00    -0.333 C  
HETATM   18  C   UNL     1      -8.642  17.652  68.423  1.00  0.00    -0.284 C  
HETATM   19  O   UNL     1      -8.657  18.943  67.793  1.00  0.00    -0.283 OA 
HETATM   20  C   UNL     1      -9.794  19.020  67.038  1.00  0.00    -0.322 C  
HETATM   21  N   UNL     1     -10.562  17.900  67.232  1.00  0.00    -0.362 NA 
HETATM   22  O   UNL     1     -10.102  19.963  66.331  1.00  0.00    -0.428 OA 
ENDBRANCH  16  17
ENDBRANCH  13  16
ENDBRANCH   5   6
ENDBRANCH   4   5
ENDBRANCH   2   4
TORSDOF 5
ENDMDL
MODEL       29
REMARK 921   NORMALIZED FREE ENERGY PREDICTED BY IDOCK:   -5.84 KCAL/MOL
REMARK 922        TOTAL FREE ENERGY PREDICTED BY IDOCK:   -7.99 KCAL/MOL
REMARK 923 INTER-LIGAND FREE ENERGY PREDICTED BY IDOCK:   -7.65 KCAL/MOL
REMARK 924 INTRA-LIGAND FREE ENERGY PREDICTED BY IDOCK:   -0.33 KCAL/MOL
REMARK 927      BINDING AFFINITY PREDICTED BY RF-SCORE:    0.00 PKD
ROOT
HETATM    1  C   UNL     1      -9.731  17.742  68.613  1.00  0.00    -0.346 C  
HETATM    2  N   UNL     1     -10.585  18.020  67.452  1.00  0.00    -0.386 NA 
HETATM    3  C   UNL     1     -10.901  19.448  67.409  1.00  0.00    -0.440 C  
ENDROOT
BRANCH   2   4
HETATM    4  C   UNL     1      -9.909  17.557  66.221  1.00  0.00    -0.285 C  
BRANCH   4   5
HETATM    5  C   UNL     1      -9.720  16.031  66.132  1.00  0.00    -0.353 C  
BRANCH   5   6
HETATM    6  C   UNL     1     -10.717  15.376  65.219  1.00  0.00    -0.439 A  
HETATM    7  C   UNL     1     -11.651  16.013  64.428  1.00  0.00    -0.212 A  
HETATM    8  N   UNL     1     -12.355  15.065  63.738  1.00  0.00    -1.058 NA 
HETATM    9  C   UNL     1     -11.899  13.808  64.057  1.00  0.00    -0.370 A  
HETATM   10  H   UNL     1     -13.110  15.263  63.082  1.00  0.00     0.000 HD 
HETATM   11  C   UNL     1     -12.308  12.554  63.591  1.00  0.00    -0.618 A  
HETATM   12  C   UNL     1     -11.657  11.426  64.101  1.00  0.00    -0.114 A  
HETATM   13  C   UNL     1     -10.633  11.538  65.050  1.00  0.00    -0.354 A  
HETATM   14  C   UNL     1     -10.229  12.815  65.480  1.00  0.00    -0.293 A  
HETATM   15  C   UNL     1     -10.874  13.969  64.987  1.00  0.00    -0.401 A  
BRANCH  13  16
HETATM   16  C   UNL     1      -9.960  10.300  65.598  1.00  0.00    -0.347 C  
BRANCH  16  17
HETATM   17  C   UNL     1     -10.331  10.007  67.051  1.00  0.00    -0.243 C  
HETATM   18  C   UNL     1      -9.317  10.482  68.075  1.00  0.00    -0.145 C  
HETATM   19  O   UNL     1     -10.106  10.708  69.254  1.00  0.00    -0.217 OA 
HETATM   20  C   UNL     1     -11.401  10.890  68.854  1.00  0.00    -0.288 C  
HETATM   21  N   UNL     1     -11.507  10.685  67.502  1.00  0.00    -0.448 NA 
HETATM   22  O   UNL     1     -12.331  11.151  69.596  1.00  0.00    -0.296 OA 
ENDBRANCH  16  17
ENDBRANCH  13  16
ENDBRANCH   5   6
ENDBRANCH   4   5
ENDBRANCH   2   4
TORSDOF 5
ENDMDL
MODEL       30
REMARK 921   NORMALIZED FREE ENERGY PREDICTED BY IDOCK:   -5.83 KCAL/MOL
REMARK 922        TOTAL FREE ENERGY PREDICTED BY IDOCK:   -7.97 KCAL/MOL
REMARK 923 INTER-LIGAND FREE ENERGY PREDICTED BY IDOCK:   -7.44 KCAL/MOL
REMARK 924 INTRA-LIGAND FREE ENERGY PREDICTED BY IDOCK:   -0.54 KCAL/MOL
REMARK 927      BINDING AFFINITY PREDICTED BY RF-SCORE:    0.00 PKD
ROOT
HETATM    1  C   UNL     1     -10.532  18.689  65.897  1.00  0.00    -0.356 C  
HETATM    2  N   UNL     1      -9.420  18.860  66.839  1.00  0.00    -0.306 NA 
HETATM    3  C   UNL     1      -9.138  20.287  67.007  1.00  0.00    -0.361 C  
ENDROOT
BRANCH   2   4
HETATM    4  C   UNL     1      -9.752  18.199  68.119  1.00  0.00    -0.325 C  
BRANCH   4   5
HETATM    5  C   UNL     1      -8.745  17.120  68.560  1.00  0.00    -0.261 C  
BRANCH   5   6
HETATM    6  C   UNL     1      -9.017  15.782  67.933  1.00  0.00    -0.180 A  
HETATM    7  C   UNL     1      -8.371  15.240  66.841  1.00  0.00    -0.243 A  
HETATM    8  N   UNL     1      -8.900  14.003  66.593  1.00  0.00    -0.435 NA 
HETATM    9  C   UNL     1      -9.885  13.716  67.508  1.00  0.00    -0.227 A  
HETATM   10  H   UNL     1      -8.605  13.384  65.839  1.00  0.00     0.000 HD 
HETATM   11  C   UNL     1     -10.682  12.574  67.648  1.00  0.00    -0.242 A  
HETATM   12  C   UNL     1     -11.621  12.559  68.685  1.00  0.00    -0.357 A  
HETATM   13  C   UNL     1     -11.769  13.647  69.554  1.00  0.00    -0.380 A  
HETATM   14  C   UNL     1     -10.936  14.770  69.401  1.00  0.00    -0.282 A  
HETATM   15  C   UNL     1      -9.985  14.814  68.359  1.00  0.00    -0.223 A  
BRANCH  13  16
HETATM   16  C   UNL     1     -12.806  13.610  70.654  1.00  0.00    -0.224 C  
BRANCH  16  17
HETATM   17  C   UNL     1     -12.940  14.938  71.398  1.00  0.00    -0.354 C  
HETATM   18  C   UNL     1     -14.348  15.273  71.853  1.00  0.00    -0.589 C  
HETATM   19  O   UNL     1     -14.143  16.110  73.002  1.00  0.00    -0.469 OA 
HETATM   20  C   UNL     1     -12.888  15.854  73.479  1.00  0.00    -0.590 C  
HETATM   21  N   UNL     1     -12.237  14.985  72.642  1.00  0.00    -0.346 NA 
HETATM   22  O   UNL     1     -12.403  16.358  74.476  1.00  0.00    -0.689 OA 
ENDBRANCH  16  17
ENDBRANCH  13  16
ENDBRANCH   5   6
ENDBRANCH   4   5
ENDBRANCH   2   4
TORSDOF 5
ENDMDL
MODEL       31
REMARK 921   NORMALIZED FREE ENERGY PREDICTED BY IDOCK:   -5.80 KCAL/MOL
REMARK 922        TOTAL FREE ENERGY PREDICTED BY IDOCK:   -7.94 KCAL/MOL
REMARK 923 INTER-LIGAND FREE ENERGY PREDICTED BY IDOCK:   -7.50 KCAL/MOL
REMARK 924 INTRA-LIGAND FREE ENERGY PREDICTED BY IDOCK:   -0.43 KCAL/MOL
REMARK 927      BINDING AFFINITY PREDICTED BY RF-SCORE:    0.00 PKD
ROOT
HETATM    1  C   UNL     1     -14.298   8.001  71.633  1.00  0.00    -0.473 C  
HETATM    2  N   UNL     1     -13.164   8.885  71.339  1.00  0.00    -0.299 NA 
HETATM    3  C   UNL     1     -13.403  10.202  71.931  1.00  0.00    -0.402 C  
ENDROOT
BRANCH   2   4
HETATM    4  C   UNL     1     -11.915   8.266  71.833  1.00  0.00    -0.330 C  
BRANCH   4   5
HETATM    5  C   UNL     1     -10.627   8.981  71.384  1.00  0.00    -0.393 C  
BRANCH   5   6
HETATM    6  C   UNL     1     -10.284   8.711  69.946  1.00  0.00    -0.206 A  
HETATM    7  C   UNL     1      -9.712   7.563  69.439  1.00  0.00    -0.164 A  
HETATM    8  N   UNL     1      -9.575   7.706  68.086  1.00  0.00    -0.148 NA 
HETATM    9  C   UNL     1     -10.052   8.932  67.688  1.00  0.00    -0.218 A  
HETATM   10  H   UNL     1      -9.177   7.004  67.463  1.00  0.00     0.000 HD 
HETATM   11  C   UNL     1     -10.127   9.500  66.411  1.00  0.00    -0.328 A  
HETATM   12  C   UNL     1     -10.666  10.787  66.302  1.00  0.00    -0.205 A  
HETATM   13  C   UNL     1     -11.113  11.491  67.427  1.00  0.00    -0.339 A  
HETATM   14  C   UNL     1     -11.045  10.882  68.693  1.00  0.00    -0.305 A  
HETATM   15  C   UNL     1     -10.501   9.588  68.832  1.00  0.00    -0.235 A  
BRANCH  13  16
HETATM   16  C   UNL     1     -11.673  12.888  67.280  1.00  0.00    -0.431 C  
BRANCH  16  17
HETATM   17  C   UNL     1     -11.563  13.433  65.857  1.00  0.00    -0.342 C  
HETATM   18  C   UNL     1     -12.783  13.194  64.988  1.00  0.00    -0.392 C  
HETATM   19  O   UNL     1     -12.743  14.274  64.042  1.00  0.00    -0.697 OA 
HETATM   20  C   UNL     1     -11.989  15.274  64.590  1.00  0.00    -0.233 C  
HETATM   21  N   UNL     1     -11.454  14.857  65.782  1.00  0.00    -0.320 NA 
HETATM   22  O   UNL     1     -11.785  16.358  64.075  1.00  0.00    -1.044 OA 
ENDBRANCH  16  17
ENDBRANCH  13  16
ENDBRANCH   5   6
ENDBRANCH   4   5
ENDBRANCH   2   4
TORSDOF 5
ENDMDL
MODEL       32
REMARK 921   NORMALIZED FREE ENERGY PREDICTED BY IDOCK:   -5.77 KCAL/MOL
REMARK 922        TOTAL FREE ENERGY PREDICTED BY IDOCK:   -7.90 KCAL/MOL
REMARK 923 INTER-LIGAND FREE ENERGY PREDICTED BY IDOCK:   -7.47 KCAL/MOL
REMARK 924 INTRA-LIGAND FREE ENERGY PREDICTED BY IDOCK:   -0.43 KCAL/MOL
REMARK 927      BINDING AFFINITY PREDICTED BY RF-SCORE:    0.00 PKD
ROOT
HETATM    1  C   UNL     1     -11.416  16.064  64.378  1.00  0.00    -0.242 C  
HETATM    2  N   UNL     1     -10.714  15.519  65.545  1.00  0.00    -0.359 NA 
HETATM    3  C   UNL     1     -10.135  16.615  66.324  1.00  0.00    -0.328 C  
ENDROOT
BRANCH   2   4
HETATM    4  C   UNL     1     -11.649  14.697  66.343  1.00  0.00    -0.339 C  
BRANCH   4   5
HETATM    5  C   UNL     1     -12.452  13.667  65.525  1.00  0.00    -0.544 C  
BRANCH   5   6
HETATM    6  C   UNL     1     -11.660  12.428  65.215  1.00  0.00    -0.419 A  
HETATM    7  C   UNL     1     -11.261  11.999  63.967  1.00  0.00    -0.397 A  
HETATM    8  N   UNL     1     -10.550  10.839  64.112  1.00  0.00    -0.435 NA 
HETATM    9  C   UNL     1     -10.471  10.495  65.441  1.00  0.00    -0.152 A  
HETATM   10  H   UNL     1     -10.140  10.307  63.346  1.00  0.00     0.000 HD 
HETATM   11  C   UNL     1      -9.839   9.409  66.055  1.00  0.00    -0.366 A  
HETATM   12  C   UNL     1      -9.925   9.308  67.449  1.00  0.00    -0.253 A  
HETATM   13  C   UNL     1     -10.623  10.255  68.209  1.00  0.00    -0.255 A  
HETATM   14  C   UNL     1     -11.227  11.348  67.563  1.00  0.00    -0.356 A  
HETATM   15  C   UNL     1     -11.160  11.471  66.158  1.00  0.00    -0.302 A  
BRANCH  13  16
HETATM   16  C   UNL     1     -10.715  10.109  69.711  1.00  0.00    -0.317 C  
BRANCH  16  17
HETATM   17  C   UNL     1     -12.088  10.485  70.267  1.00  0.00    -0.318 C  
HETATM   18  C   UNL     1     -12.510   9.707  71.500  1.00  0.00    -0.386 C  
HETATM   19  O   UNL     1     -13.402  10.605  72.179  1.00  0.00    -0.444 OA 
HETATM   20  C   UNL     1     -13.119  11.871  71.748  1.00  0.00    -0.360 C  
HETATM   21  N   UNL     1     -12.175  11.827  70.754  1.00  0.00    -0.371 NA 
HETATM   22  O   UNL     1     -13.657  12.885  72.155  1.00  0.00    -0.528 OA 
ENDBRANCH  16  17
ENDBRANCH  13  16
ENDBRANCH   5   6
ENDBRANCH   4   5
ENDBRANCH   2   4
TORSDOF 5
ENDMDL
MODEL       33
REMARK 921   NORMALIZED FREE ENERGY PREDICTED BY IDOCK:   -5.72 KCAL/MOL
REMARK 922        TOTAL FREE ENERGY PREDICTED BY IDOCK:   -7.83 KCAL/MOL
REMARK 923 INTER-LIGAND FREE ENERGY PREDICTED BY IDOCK:   -7.42 KCAL/MOL
REMARK 924 INTRA-LIGAND FREE ENERGY PREDICTED BY IDOCK:   -0.42 KCAL/MOL
REMARK 927      BINDING AFFINITY PREDICTED BY RF-SCORE:    0.00 PKD
ROOT
HETATM    1  C   UNL     1     -10.656  19.452  65.800  1.00  0.00    -0.400 C  
HETATM    2  N   UNL     1      -9.588  18.492  66.099  1.00  0.00    -0.492 NA 
HETATM    3  C   UNL     1      -8.583  19.127  66.952  1.00  0.00    -0.299 C  
ENDROOT
BRANCH   2   4
HETATM    4  C   UNL     1     -10.170  17.284  66.722  1.00  0.00    -0.318 C  
BRANCH   4   5
HETATM    5  C   UNL     1      -9.683  15.954  66.115  1.00  0.00    -0.351 C  
BRANCH   5   6
HETATM    6  C   UNL     1     -10.693  15.332  65.194  1.00  0.00    -0.455 A  
HETATM    7  C   UNL     1     -11.643  15.996  64.446  1.00  0.00    -0.212 A  
HETATM    8  N   UNL     1     -12.357  15.074  63.731  1.00  0.00    -1.058 NA 
HETATM    9  C   UNL     1     -11.891  13.807  63.993  1.00  0.00    -0.370 A  
HETATM   10  H   UNL     1     -13.124  15.294  63.097  1.00  0.00     0.000 HD 
HETATM   11  C   UNL     1     -12.305  12.571  63.485  1.00  0.00    -0.623 A  
HETATM   12  C   UNL     1     -11.641  11.425  63.938  1.00  0.00    -0.154 A  
HETATM   13  C   UNL     1     -10.601  11.504  64.873  1.00  0.00    -0.360 A  
HETATM   14  C   UNL     1     -10.194  12.764  65.346  1.00  0.00    -0.299 A  
HETATM   15  C   UNL     1     -10.850  13.935  64.910  1.00  0.00    -0.413 A  
BRANCH  13  16
HETATM   16  C   UNL     1      -9.915  10.248  65.359  1.00  0.00    -0.371 C  
BRANCH  16  17
HETATM   17  C   UNL     1     -10.512   9.700  66.655  1.00  0.00    -0.163 C  
HETATM   18  C   UNL     1     -10.294   8.216  66.879  1.00  0.00    -0.331 C  
HETATM   19  O   UNL     1     -10.315   8.082  68.309  1.00  0.00    -0.201 OA 
HETATM   20  C   UNL     1     -10.024   9.307  68.842  1.00  0.00    -0.181 C  
HETATM   21  N   UNL     1      -9.926  10.241  67.842  1.00  0.00    -0.160 NA 
HETATM   22  O   UNL     1      -9.913   9.543  70.031  1.00  0.00    -0.205 OA 
ENDBRANCH  16  17
ENDBRANCH  13  16
ENDBRANCH   5   6
ENDBRANCH   4   5
ENDBRANCH   2   4
TORSDOF 5
ENDMDL
MODEL       34
REMARK 921   NORMALIZED FREE ENERGY PREDICTED BY IDOCK:   -5.68 KCAL/MOL
REMARK 922        TOTAL FREE ENERGY PREDICTED BY IDOCK:   -7.78 KCAL/MOL
REMARK 923 INTER-LIGAND FREE ENERGY PREDICTED BY IDOCK:   -7.48 KCAL/MOL
REMARK 924 INTRA-LIGAND FREE ENERGY PREDICTED BY IDOCK:   -0.29 KCAL/MOL
REMARK 927      BINDING AFFINITY PREDICTED BY RF-SCORE:    0.00 PKD
ROOT
HETATM    1  C   UNL     1     -10.918   6.574  69.273  1.00  0.00    -0.331 C  
HETATM    2  N   UNL     1     -10.377   7.933  69.161  1.00  0.00    -0.217 NA 
HETATM    3  C   UNL     1     -10.543   8.414  67.789  1.00  0.00    -0.171 C  
ENDROOT
BRANCH   2   4
HETATM    4  C   UNL     1     -11.041   8.811  70.148  1.00  0.00    -0.202 C  
BRANCH   4   5
HETATM    5  C   UNL     1     -11.338  10.234  69.638  1.00  0.00    -0.315 C  
BRANCH   5   6
HETATM    6  C   UNL     1     -12.181  11.029  70.595  1.00  0.00    -0.481 A  
HETATM    7  C   UNL     1     -12.916  10.532  71.652  1.00  0.00    -0.476 A  
HETATM    8  N   UNL     1     -13.529  11.578  72.285  1.00  0.00    -0.521 NA 
HETATM    9  C   UNL     1     -13.209  12.762  71.664  1.00  0.00    -0.317 A  
HETATM   10  H   UNL     1     -14.136  11.492  73.099  1.00  0.00     0.000 HD 
HETATM   11  C   UNL     1     -13.591  14.073  71.969  1.00  0.00    -0.552 A  
HETATM   12  C   UNL     1     -13.108  15.099  71.149  1.00  0.00    -0.515 A  
HETATM   13  C   UNL     1     -12.275  14.832  70.056  1.00  0.00    -0.383 A  
HETATM   14  C   UNL     1     -11.890  13.506  69.791  1.00  0.00    -0.395 A  
HETATM   15  C   UNL     1     -12.368  12.451  70.598  1.00  0.00    -0.367 A  
BRANCH  13  16
HETATM   16  C   UNL     1     -11.783  15.960  69.177  1.00  0.00    -0.369 C  
BRANCH  16  17
HETATM   17  C   UNL     1     -10.822  15.494  68.084  1.00  0.00    -0.296 C  
HETATM   18  C   UNL     1     -11.488  15.077  66.786  1.00  0.00    -0.251 C  
HETATM   19  O   UNL     1     -10.479  15.324  65.794  1.00  0.00    -0.304 OA 
HETATM   20  C   UNL     1      -9.607  16.240  66.311  1.00  0.00    -0.308 C  
HETATM   21  N   UNL     1      -9.933  16.512  67.616  1.00  0.00    -0.249 NA 
HETATM   22  O   UNL     1      -8.654  16.711  65.718  1.00  0.00    -0.464 OA 
ENDBRANCH  16  17
ENDBRANCH  13  16
ENDBRANCH   5   6
ENDBRANCH   4   5
ENDBRANCH   2   4
TORSDOF 5
ENDMDL
MODEL       35
REMARK 921   NORMALIZED FREE ENERGY PREDICTED BY IDOCK:   -5.67 KCAL/MOL
REMARK 922        TOTAL FREE ENERGY PREDICTED BY IDOCK:   -7.77 KCAL/MOL
REMARK 923 INTER-LIGAND FREE ENERGY PREDICTED BY IDOCK:   -7.20 KCAL/MOL
REMARK 924 INTRA-LIGAND FREE ENERGY PREDICTED BY IDOCK:   -0.57 KCAL/MOL
REMARK 927      BINDING AFFINITY PREDICTED BY RF-SCORE:    0.00 PKD
ROOT
HETATM    1  C   UNL     1     -10.752   7.241  67.061  1.00  0.00    -0.336 C  
HETATM    2  N   UNL     1     -10.072   8.536  66.947  1.00  0.00    -0.267 NA 
HETATM    3  C   UNL     1      -9.725   9.025  68.281  1.00  0.00    -0.152 C  
ENDROOT
BRANCH   2   4
HETATM    4  C   UNL     1      -8.887   8.395  66.074  1.00  0.00    -0.167 C  
BRANCH   4   5
HETATM    5  C   UNL     1      -8.351   9.723  65.506  1.00  0.00    -0.141 C  
BRANCH   5   6
HETATM    6  C   UNL     1      -9.267  10.328  64.481  1.00  0.00    -0.295 A  
HETATM    7  C   UNL     1      -9.344   9.990  63.145  1.00  0.00    -0.260 A  
HETATM    8  N   UNL     1     -10.309  10.758  62.556  1.00  0.00    -0.685 NA 
HETATM    9  C   UNL     1     -10.877  11.600  63.483  1.00  0.00    -0.425 A  
HETATM   10  H   UNL     1     -10.570  10.714  61.572  1.00  0.00     0.000 HD 
HETATM   11  C   UNL     1     -11.900  12.543  63.339  1.00  0.00    -0.587 A  
HETATM   12  C   UNL     1     -12.278  13.272  64.472  1.00  0.00    -0.456 A  
HETATM   13  C   UNL     1     -11.656  13.074  65.711  1.00  0.00    -0.396 A  
HETATM   14  C   UNL     1     -10.648  12.101  65.828  1.00  0.00    -0.295 A  
HETATM   15  C   UNL     1     -10.242  11.357  64.699  1.00  0.00    -0.347 A  
BRANCH  13  16
HETATM   16  C   UNL     1     -12.074  13.889  66.914  1.00  0.00    -0.467 C  
BRANCH  16  17
HETATM   17  C   UNL     1     -10.974  14.822  67.418  1.00  0.00    -0.313 C  
HETATM   18  C   UNL     1     -10.388  15.744  66.365  1.00  0.00    -0.299 C  
HETATM   19  O   UNL     1      -9.933  16.877  67.122  1.00  0.00    -0.261 OA 
HETATM   20  C   UNL     1     -10.624  16.889  68.301  1.00  0.00    -0.363 C  
HETATM   21  N   UNL     1     -11.414  15.772  68.393  1.00  0.00    -0.374 NA 
HETATM   22  O   UNL     1     -10.520  17.743  69.163  1.00  0.00    -0.312 OA 
ENDBRANCH  16  17
ENDBRANCH  13  16
ENDBRANCH   5   6
ENDBRANCH   4   5
ENDBRANCH   2   4
TORSDOF 5
ENDMDL
MODEL       36
REMARK 921   NORMALIZED FREE ENERGY PREDICTED BY IDOCK:   -5.67 KCAL/MOL
REMARK 922        TOTAL FREE ENERGY PREDICTED BY IDOCK:   -7.76 KCAL/MOL
REMARK 923 INTER-LIGAND FREE ENERGY PREDICTED BY IDOCK:   -7.26 KCAL/MOL
REMARK 924 INTRA-LIGAND FREE ENERGY PREDICTED BY IDOCK:   -0.50 KCAL/MOL
REMARK 927      BINDING AFFINITY PREDICTED BY RF-SCORE:    0.00 PKD
ROOT
HETATM    1  C   UNL     1     -10.408  19.824  65.944  1.00  0.00    -0.483 C  
HETATM    2  N   UNL     1      -9.770  20.255  67.194  1.00  0.00    -0.427 NA 
HETATM    3  C   UNL     1     -10.267  19.440  68.303  1.00  0.00    -0.433 C  
ENDROOT
BRANCH   2   4
HETATM    4  C   UNL     1      -8.301  20.173  67.051  1.00  0.00    -0.328 C  
BRANCH   4   5
HETATM    5  C   UNL     1      -7.820  19.239  65.925  1.00  0.00    -0.194 C  
BRANCH   5   6
HETATM    6  C   UNL     1      -7.248  17.950  66.445  1.00  0.00    -0.298 A  
HETATM    7  C   UNL     1      -5.942  17.725  66.828  1.00  0.00    -0.159 A  
HETATM    8  N   UNL     1      -5.831  16.430  67.253  1.00  0.00    -0.199 NA 
HETATM    9  C   UNL     1      -7.046  15.793  67.160  1.00  0.00    -0.190 A  
HETATM   10  H   UNL     1      -4.971  15.999  67.591  1.00  0.00     0.000 HD 
HETATM   11  C   UNL     1      -7.405  14.483  67.492  1.00  0.00    -0.212 A  
HETATM   12  C   UNL     1      -8.736  14.101  67.285  1.00  0.00    -0.229 A  
HETATM   13  C   UNL     1      -9.680  14.992  66.761  1.00  0.00    -0.253 A  
HETATM   14  C   UNL     1      -9.291  16.310  66.460  1.00  0.00    -0.298 A  
HETATM   15  C   UNL     1      -7.955  16.720  66.652  1.00  0.00    -0.306 A  
BRANCH  13  16
HETATM   16  C   UNL     1     -11.106  14.546  66.531  1.00  0.00    -0.332 C  
BRANCH  16  17
HETATM   17  C   UNL     1     -11.385  14.145  65.083  1.00  0.00    -0.336 C  
HETATM   18  C   UNL     1     -10.331  13.252  64.455  1.00  0.00    -0.374 C  
HETATM   19  O   UNL     1     -11.059  12.517  63.459  1.00  0.00    -0.444 OA 
HETATM   20  C   UNL     1     -12.380  12.543  63.812  1.00  0.00    -0.502 C  
HETATM   21  N   UNL     1     -12.555  13.342  64.913  1.00  0.00    -0.636 NA 
HETATM   22  O   UNL     1     -13.275  11.976  63.211  1.00  0.00    -0.628 OA 
ENDBRANCH  16  17
ENDBRANCH  13  16
ENDBRANCH   5   6
ENDBRANCH   4   5
ENDBRANCH   2   4
TORSDOF 5
ENDMDL
MODEL       37
REMARK 921   NORMALIZED FREE ENERGY PREDICTED BY IDOCK:   -5.64 KCAL/MOL
REMARK 922        TOTAL FREE ENERGY PREDICTED BY IDOCK:   -7.73 KCAL/MOL
REMARK 923 INTER-LIGAND FREE ENERGY PREDICTED BY IDOCK:   -7.36 KCAL/MOL
REMARK 924 INTRA-LIGAND FREE ENERGY PREDICTED BY IDOCK:   -0.37 KCAL/MOL
REMARK 927      BINDING AFFINITY PREDICTED BY RF-SCORE:    0.00 PKD
ROOT
HETATM    1  C   UNL     1      -9.960  11.460  63.209  1.00  0.00    -0.401 C  
HETATM    2  N   UNL     1     -10.665  12.551  63.891  1.00  0.00    -0.410 NA 
HETATM    3  C   UNL     1     -12.067  12.566  63.471  1.00  0.00    -0.562 C  
ENDROOT
BRANCH   2   4
HETATM    4  C   UNL     1     -10.519  12.394  65.354  1.00  0.00    -0.277 C  
BRANCH   4   5
HETATM    5  C   UNL     1     -11.848  12.408  66.133  1.00  0.00    -0.442 C  
BRANCH   5   6
HETATM    6  C   UNL     1     -11.672  12.799  67.573  1.00  0.00    -0.422 A  
HETATM    7  C   UNL     1     -11.735  11.959  68.666  1.00  0.00    -0.323 A  
HETATM    8  N   UNL     1     -11.508  12.697  69.795  1.00  0.00    -0.489 NA 
HETATM    9  C   UNL     1     -11.292  14.015  69.466  1.00  0.00    -0.245 A  
HETATM   10  H   UNL     1     -11.500  12.324  70.744  1.00  0.00     0.000 HD 
HETATM   11  C   UNL     1     -11.010  15.115  70.283  1.00  0.00    -0.277 A  
HETATM   12  C   UNL     1     -10.838  16.358  69.664  1.00  0.00    -0.346 A  
HETATM   13  C   UNL     1     -10.948  16.506  68.276  1.00  0.00    -0.346 A  
HETATM   14  C   UNL     1     -11.208  15.376  67.481  1.00  0.00    -0.302 A  
HETATM   15  C   UNL     1     -11.392  14.111  68.079  1.00  0.00    -0.324 A  
BRANCH  13  16
HETATM   16  C   UNL     1     -10.775  17.866  67.637  1.00  0.00    -0.343 C  
BRANCH  16  17
HETATM   17  C   UNL     1      -9.310  18.259  67.449  1.00  0.00    -0.261 C  
HETATM   18  C   UNL     1      -9.070  19.341  66.413  1.00  0.00    -0.352 C  
HETATM   19  O   UNL     1      -7.858  19.972  66.856  1.00  0.00    -0.282 OA 
HETATM   20  C   UNL     1      -7.720  19.707  68.190  1.00  0.00    -0.309 C  
HETATM   21  N   UNL     1      -8.711  18.854  68.603  1.00  0.00    -0.348 NA 
HETATM   22  O   UNL     1      -6.823  20.129  68.898  1.00  0.00    -0.296 OA 
ENDBRANCH  16  17
ENDBRANCH  13  16
ENDBRANCH   5   6
ENDBRANCH   4   5
ENDBRANCH   2   4
TORSDOF 5
ENDMDL
MODEL       38
REMARK 921   NORMALIZED FREE ENERGY PREDICTED BY IDOCK:   -5.62 KCAL/MOL
REMARK 922        TOTAL FREE ENERGY PREDICTED BY IDOCK:   -7.70 KCAL/MOL
REMARK 923 INTER-LIGAND FREE ENERGY PREDICTED BY IDOCK:   -7.29 KCAL/MOL
REMARK 924 INTRA-LIGAND FREE ENERGY PREDICTED BY IDOCK:   -0.41 KCAL/MOL
REMARK 927      BINDING AFFINITY PREDICTED BY RF-SCORE:    0.00 PKD
ROOT
HETATM    1  C   UNL     1      -9.217  19.388  66.919  1.00  0.00    -0.322 C  
HETATM    2  N   UNL     1      -9.143  18.255  65.990  1.00  0.00    -0.513 NA 
HETATM    3  C   UNL     1      -8.073  17.348  66.409  1.00  0.00    -0.280 C  
ENDROOT
BRANCH   2   4
HETATM    4  C   UNL     1     -10.458  17.581  65.929  1.00  0.00    -0.249 C  
BRANCH   4   5
HETATM    5  C   UNL     1     -10.438  16.101  66.357  1.00  0.00    -0.304 C  
BRANCH   5   6
HETATM    6  C   UNL     1     -11.084  15.196  65.347  1.00  0.00    -0.371 A  
HETATM    7  C   UNL     1     -11.990  15.564  64.374  1.00  0.00    -0.183 A  
HETATM    8  N   UNL     1     -12.327  14.453  63.651  1.00  0.00    -1.106 NA 
HETATM    9  C   UNL     1     -11.654  13.353  64.129  1.00  0.00    -0.398 A  
HETATM   10  H   UNL     1     -12.983  14.442  62.871  1.00  0.00     0.000 HD 
HETATM   11  C   UNL     1     -11.677  12.023  63.696  1.00  0.00    -0.587 A  
HETATM   12  C   UNL     1     -10.879  11.102  64.384  1.00  0.00    -0.340 A  
HETATM   13  C   UNL     1     -10.088  11.488  65.473  1.00  0.00    -0.286 A  
HETATM   14  C   UNL     1     -10.070  12.837  65.868  1.00  0.00    -0.286 A  
HETATM   15  C   UNL     1     -10.869  13.786  65.196  1.00  0.00    -0.349 A  
BRANCH  13  16
HETATM   16  C   UNL     1      -9.251  10.465  66.209  1.00  0.00    -0.195 C  
BRANCH  16  17
HETATM   17  C   UNL     1      -9.730   9.030  65.994  1.00  0.00    -0.269 C  
HETATM   18  C   UNL     1      -8.629   7.986  65.983  1.00  0.00    -0.145 C  
HETATM   19  O   UNL     1      -9.292   6.790  66.423  1.00  0.00    -0.163 OA 
HETATM   20  C   UNL     1     -10.412   7.168  67.109  1.00  0.00    -0.319 C  
HETATM   21  N   UNL     1     -10.565   8.530  67.041  1.00  0.00    -0.290 NA 
HETATM   22  O   UNL     1     -11.184   6.406  67.661  1.00  0.00    -0.337 OA 
ENDBRANCH  16  17
ENDBRANCH  13  16
ENDBRANCH   5   6
ENDBRANCH   4   5
ENDBRANCH   2   4
TORSDOF 5
ENDMDL
MODEL       39
REMARK 921   NORMALIZED FREE ENERGY PREDICTED BY IDOCK:   -5.58 KCAL/MOL
REMARK 922        TOTAL FREE ENERGY PREDICTED BY IDOCK:   -7.64 KCAL/MOL
REMARK 923 INTER-LIGAND FREE ENERGY PREDICTED BY IDOCK:   -7.24 KCAL/MOL
REMARK 924 INTRA-LIGAND FREE ENERGY PREDICTED BY IDOCK:   -0.41 KCAL/MOL
REMARK 927      BINDING AFFINITY PREDICTED BY RF-SCORE:    0.00 PKD
ROOT
HETATM    1  C   UNL     1     -11.124   9.413  71.395  1.00  0.00    -0.380 C  
HETATM    2  N   UNL     1     -12.578   9.390  71.196  1.00  0.00    -0.305 NA 
HETATM    3  C   UNL     1     -13.237   9.031  72.453  1.00  0.00    -0.447 C  
ENDROOT
BRANCH   2   4
HETATM    4  C   UNL     1     -13.027  10.702  70.682  1.00  0.00    -0.264 C  
BRANCH   4   5
HETATM    5  C   UNL     1     -11.888  11.702  70.407  1.00  0.00    -0.385 C  
BRANCH   5   6
HETATM    6  C   UNL     1     -11.756  12.044  68.950  1.00  0.00    -0.383 A  
HETATM    7  C   UNL     1     -11.904  11.179  67.886  1.00  0.00    -0.082 A  
HETATM    8  N   UNL     1     -11.719  11.880  66.726  1.00  0.00    -0.590 NA 
HETATM    9  C   UNL     1     -11.453  13.200  67.007  1.00  0.00    -0.336 A  
HETATM   10  H   UNL     1     -11.771  11.482  65.789  1.00  0.00     0.000 HD 
HETATM   11  C   UNL     1     -11.213  14.275  66.144  1.00  0.00    -0.331 A  
HETATM   12  C   UNL     1     -10.965  15.527  66.718  1.00  0.00    -0.257 A  
HETATM   13  C   UNL     1     -10.949  15.705  68.107  1.00  0.00    -0.314 A  
HETATM   14  C   UNL     1     -11.218  14.608  68.946  1.00  0.00    -0.285 A  
HETATM   15  C   UNL     1     -11.466  13.333  68.393  1.00  0.00    -0.349 A  
BRANCH  13  16
HETATM   16  C   UNL     1     -10.659  17.066  68.699  1.00  0.00    -0.362 C  
BRANCH  16  17
HETATM   17  C   UNL     1     -10.029  18.034  67.698  1.00  0.00    -0.329 C  
HETATM   18  C   UNL     1     -10.885  19.237  67.351  1.00  0.00    -0.446 C  
HETATM   19  O   UNL     1      -9.925  20.243  66.990  1.00  0.00    -0.432 OA 
HETATM   20  C   UNL     1      -8.731  19.897  67.561  1.00  0.00    -0.338 C  
HETATM   21  N   UNL     1      -8.842  18.675  68.173  1.00  0.00    -0.302 NA 
HETATM   22  O   UNL     1      -7.709  20.556  67.496  1.00  0.00    -0.319 OA 
ENDBRANCH  16  17
ENDBRANCH  13  16
ENDBRANCH   5   6
ENDBRANCH   4   5
ENDBRANCH   2   4
TORSDOF 5
ENDMDL
MODEL       40
REMARK 921   NORMALIZED FREE ENERGY PREDICTED BY IDOCK:   -5.57 KCAL/MOL
REMARK 922        TOTAL FREE ENERGY PREDICTED BY IDOCK:   -7.64 KCAL/MOL
REMARK 923 INTER-LIGAND FREE ENERGY PREDICTED BY IDOCK:   -7.27 KCAL/MOL
REMARK 924 INTRA-LIGAND FREE ENERGY PREDICTED BY IDOCK:   -0.37 KCAL/MOL
REMARK 927      BINDING AFFINITY PREDICTED BY RF-SCORE:    0.00 PKD
ROOT
HETATM    1  C   UNL     1     -10.516  11.120  66.251  1.00  0.00    -0.259 C  
HETATM    2  N   UNL     1     -10.275  10.544  67.579  1.00  0.00    -0.195 NA 
HETATM    3  C   UNL     1      -9.194  11.275  68.241  1.00  0.00    -0.176 C  
ENDROOT
BRANCH   2   4
HETATM    4  C   UNL     1     -11.530  10.567  68.361  1.00  0.00    -0.214 C  
BRANCH   4   5
HETATM    5  C   UNL     1     -11.342  10.352  69.875  1.00  0.00    -0.370 C  
BRANCH   5   6
HETATM    6  C   UNL     1     -12.164  11.298  70.702  1.00  0.00    -0.489 A  
HETATM    7  C   UNL     1     -12.938  10.974  71.797  1.00  0.00    -0.438 A  
HETATM    8  N   UNL     1     -13.514  12.118  72.276  1.00  0.00    -0.556 NA 
HETATM    9  C   UNL     1     -13.131  13.198  71.516  1.00  0.00    -0.315 A  
HETATM   10  H   UNL     1     -14.138  12.164  73.081  1.00  0.00     0.000 HD 
HETATM   11  C   UNL     1     -13.459  14.552  71.641  1.00  0.00    -0.452 A  
HETATM   12  C   UNL     1     -12.916  15.442  70.707  1.00  0.00    -0.510 A  
HETATM   13  C   UNL     1     -12.078  15.000  69.677  1.00  0.00    -0.337 A  
HETATM   14  C   UNL     1     -11.749  13.636  69.593  1.00  0.00    -0.383 A  
HETATM   15  C   UNL     1     -12.287  12.715  70.518  1.00  0.00    -0.350 A  
BRANCH  13  16
HETATM   16  C   UNL     1     -11.522  15.983  68.671  1.00  0.00    -0.377 C  
BRANCH  16  17
HETATM   17  C   UNL     1     -10.296  16.738  69.184  1.00  0.00    -0.326 C  
HETATM   18  C   UNL     1      -8.963  16.159  68.749  1.00  0.00    -0.236 C  
HETATM   19  O   UNL     1      -8.083  17.293  68.755  1.00  0.00    -0.266 OA 
HETATM   20  C   UNL     1      -8.856  18.416  68.650  1.00  0.00    -0.283 C  
HETATM   21  N   UNL     1     -10.184  18.075  68.688  1.00  0.00    -0.387 NA 
HETATM   22  O   UNL     1      -8.429  19.554  68.578  1.00  0.00    -0.346 OA 
ENDBRANCH  16  17
ENDBRANCH  13  16
ENDBRANCH   5   6
ENDBRANCH   4   5
ENDBRANCH   2   4
TORSDOF 5
ENDMDL
MODEL       41
REMARK 921   NORMALIZED FREE ENERGY PREDICTED BY IDOCK:   -5.57 KCAL/MOL
REMARK 922        TOTAL FREE ENERGY PREDICTED BY IDOCK:   -7.63 KCAL/MOL
REMARK 923 INTER-LIGAND FREE ENERGY PREDICTED BY IDOCK:   -7.20 KCAL/MOL
REMARK 924 INTRA-LIGAND FREE ENERGY PREDICTED BY IDOCK:   -0.43 KCAL/MOL
REMARK 927      BINDING AFFINITY PREDICTED BY RF-SCORE:    0.00 PKD
ROOT
HETATM    1  C   UNL     1     -12.256  14.676  69.793  1.00  0.00    -0.302 C  
HETATM    2  N   UNL     1     -11.726  15.365  68.611  1.00  0.00    -0.363 NA 
HETATM    3  C   UNL     1     -10.690  16.313  69.022  1.00  0.00    -0.300 C  
ENDROOT
BRANCH   2   4
HETATM    4  C   UNL     1     -11.223  14.367  67.643  1.00  0.00    -0.313 C  
BRANCH   4   5
HETATM    5  C   UNL     1     -12.316  13.697  66.790  1.00  0.00    -0.354 C  
BRANCH   5   6
HETATM    6  C   UNL     1     -11.795  13.181  65.479  1.00  0.00    -0.420 A  
HETATM    7  C   UNL     1     -11.951  13.771  64.242  1.00  0.00    -0.443 A  
HETATM    8  N   UNL     1     -11.318  12.998  63.308  1.00  0.00    -0.680 NA 
HETATM    9  C   UNL     1     -10.742  11.904  63.909  1.00  0.00    -0.395 A  
HETATM   10  H   UNL     1     -11.280  13.203  62.311  1.00  0.00     0.000 HD 
HETATM   11  C   UNL     1      -9.991  10.862  63.356  1.00  0.00    -0.414 A  
HETATM   12  C   UNL     1      -9.525   9.864  64.220  1.00  0.00    -0.280 A  
HETATM   13  C   UNL     1      -9.802   9.898  65.592  1.00  0.00    -0.368 A  
HETATM   14  C   UNL     1     -10.539  10.972  66.121  1.00  0.00    -0.288 A  
HETATM   15  C   UNL     1     -11.026  11.988  65.271  1.00  0.00    -0.356 A  
BRANCH  13  16
HETATM   16  C   UNL     1      -9.302   8.796  66.499  1.00  0.00    -0.260 C  
BRANCH  16  17
HETATM   17  C   UNL     1     -10.428   7.970  67.118  1.00  0.00    -0.338 C  
HETATM   18  C   UNL     1     -10.420   6.500  66.743  1.00  0.00    -0.230 C  
HETATM   19  O   UNL     1     -11.059   5.861  67.859  1.00  0.00    -0.250 OA 
HETATM   20  C   UNL     1     -10.949   6.700  68.933  1.00  0.00    -0.267 C  
HETATM   21  N   UNL     1     -10.374   7.883  68.544  1.00  0.00    -0.206 NA 
HETATM   22  O   UNL     1     -11.343   6.451  70.058  1.00  0.00    -0.370 OA 
ENDBRANCH  16  17
ENDBRANCH  13  16
ENDBRANCH   5   6
ENDBRANCH   4   5
ENDBRANCH   2   4
TORSDOF 5
ENDMDL
MODEL       42
REMARK 921   NORMALIZED FREE ENERGY PREDICTED BY IDOCK:   -5.56 KCAL/MOL
REMARK 922        TOTAL FREE ENERGY PREDICTED BY IDOCK:   -7.62 KCAL/MOL
REMARK 923 INTER-LIGAND FREE ENERGY PREDICTED BY IDOCK:   -7.41 KCAL/MOL
REMARK 924 INTRA-LIGAND FREE ENERGY PREDICTED BY IDOCK:   -0.21 KCAL/MOL
REMARK 927      BINDING AFFINITY PREDICTED BY RF-SCORE:    0.00 PKD
ROOT
HETATM    1  C   UNL     1      -8.275  11.117  67.430  1.00  0.00    -0.132 C  
HETATM    2  N   UNL     1      -9.656  11.211  67.919  1.00  0.00    -0.171 NA 
HETATM    3  C   UNL     1     -10.574  10.735  66.883  1.00  0.00    -0.258 C  
ENDROOT
BRANCH   2   4
HETATM    4  C   UNL     1      -9.786  10.447  69.178  1.00  0.00    -0.223 C  
BRANCH   4   5
HETATM    5  C   UNL     1     -11.149   9.756  69.368  1.00  0.00    -0.205 C  
BRANCH   5   6
HETATM    6  C   UNL     1     -11.981  10.397  70.442  1.00  0.00    -0.409 A  
HETATM    7  C   UNL     1     -12.598   9.756  71.496  1.00  0.00    -0.398 A  
HETATM    8  N   UNL     1     -13.245  10.692  72.256  1.00  0.00    -0.574 NA 
HETATM    9  C   UNL     1     -13.063  11.945  71.721  1.00  0.00    -0.360 A  
HETATM   10  H   UNL     1     -13.784  10.489  73.096  1.00  0.00     0.000 HD 
HETATM   11  C   UNL     1     -13.523  13.190  72.163  1.00  0.00    -0.653 A  
HETATM   12  C   UNL     1     -13.180  14.317  71.406  1.00  0.00    -0.419 A  
HETATM   13  C   UNL     1     -12.409  14.210  70.243  1.00  0.00    -0.421 A  
HETATM   14  C   UNL     1     -11.941  12.946  69.839  1.00  0.00    -0.377 A  
HETATM   15  C   UNL     1     -12.277  11.793  70.580  1.00  0.00    -0.443 A  
BRANCH  13  16
HETATM   16  C   UNL     1     -12.070  15.443  69.435  1.00  0.00    -0.308 C  
BRANCH  16  17
HETATM   17  C   UNL     1     -11.124  15.156  68.270  1.00  0.00    -0.291 C  
HETATM   18  C   UNL     1     -11.797  14.618  67.021  1.00  0.00    -0.337 C  
HETATM   19  O   UNL     1     -10.928  15.040  65.959  1.00  0.00    -0.326 OA 
HETATM   20  C   UNL     1     -10.202  16.103  66.419  1.00  0.00    -0.306 C  
HETATM   21  N   UNL     1     -10.474  16.317  67.746  1.00  0.00    -0.288 NA 
HETATM   22  O   UNL     1      -9.398  16.739  65.760  1.00  0.00    -0.515 OA 
ENDBRANCH  16  17
ENDBRANCH  13  16
ENDBRANCH   5   6
ENDBRANCH   4   5
ENDBRANCH   2   4
TORSDOF 5
ENDMDL
MODEL       43
REMARK 921   NORMALIZED FREE ENERGY PREDICTED BY IDOCK:   -5.54 KCAL/MOL
REMARK 922        TOTAL FREE ENERGY PREDICTED BY IDOCK:   -7.60 KCAL/MOL
REMARK 923 INTER-LIGAND FREE ENERGY PREDICTED BY IDOCK:   -7.21 KCAL/MOL
REMARK 924 INTRA-LIGAND FREE ENERGY PREDICTED BY IDOCK:   -0.39 KCAL/MOL
REMARK 927      BINDING AFFINITY PREDICTED BY RF-SCORE:    0.00 PKD
ROOT
HETATM    1  C   UNL     1     -10.204  18.705  66.168  1.00  0.00    -0.416 C  
HETATM    2  N   UNL     1      -9.182  17.685  65.904  1.00  0.00    -0.518 NA 
HETATM    3  C   UNL     1      -7.873  18.185  66.325  1.00  0.00    -0.245 C  
ENDROOT
BRANCH   2   4
HETATM    4  C   UNL     1      -9.551  16.428  66.590  1.00  0.00    -0.256 C  
BRANCH   4   5
HETATM    5  C   UNL     1     -10.883  15.812  66.122  1.00  0.00    -0.240 C  
BRANCH   5   6
HETATM    6  C   UNL     1     -10.762  14.352  65.790  1.00  0.00    -0.312 A  
HETATM    7  C   UNL     1     -10.459  13.811  64.558  1.00  0.00    -0.356 A  
HETATM    8  N   UNL     1     -10.431  12.449  64.676  1.00  0.00    -0.296 NA 
HETATM    9  C   UNL     1     -10.708  12.079  65.971  1.00  0.00    -0.279 A  
HETATM   10  H   UNL     1     -10.233  11.801  63.914  1.00  0.00     0.000 HD 
HETATM   11  C   UNL     1     -10.775  10.808  66.551  1.00  0.00    -0.245 A  
HETATM   12  C   UNL     1     -11.086  10.730  67.914  1.00  0.00    -0.369 A  
HETATM   13  C   UNL     1     -11.329  11.879  68.676  1.00  0.00    -0.331 A  
HETATM   14  C   UNL     1     -11.230  13.143  68.067  1.00  0.00    -0.308 A  
HETATM   15  C   UNL     1     -10.924  13.250  66.693  1.00  0.00    -0.297 A  
BRANCH  13  16
HETATM   16  C   UNL     1     -11.681  11.763  70.141  1.00  0.00    -0.354 C  
BRANCH  16  17
HETATM   17  C   UNL     1     -12.128  10.358  70.542  1.00  0.00    -0.332 C  
HETATM   18  C   UNL     1     -11.210   9.652  71.523  1.00  0.00    -0.307 C  
HETATM   19  O   UNL     1     -12.085   8.748  72.216  1.00  0.00    -0.366 OA 
HETATM   20  C   UNL     1     -13.359   9.226  72.084  1.00  0.00    -0.468 C  
HETATM   21  N   UNL     1     -13.366  10.320  71.257  1.00  0.00    -0.332 NA 
HETATM   22  O   UNL     1     -14.348   8.727  72.590  1.00  0.00    -0.585 OA 
ENDBRANCH  16  17
ENDBRANCH  13  16
ENDBRANCH   5   6
ENDBRANCH   4   5
ENDBRANCH   2   4
TORSDOF 5
ENDMDL
MODEL       44
REMARK 921   NORMALIZED FREE ENERGY PREDICTED BY IDOCK:   -5.51 KCAL/MOL
REMARK 922        TOTAL FREE ENERGY PREDICTED BY IDOCK:   -7.56 KCAL/MOL
REMARK 923 INTER-LIGAND FREE ENERGY PREDICTED BY IDOCK:   -7.25 KCAL/MOL
REMARK 924 INTRA-LIGAND FREE ENERGY PREDICTED BY IDOCK:   -0.30 KCAL/MOL
REMARK 927      BINDING AFFINITY PREDICTED BY RF-SCORE:    0.00 PKD
ROOT
HETATM    1  C   UNL     1     -12.602  15.602  73.080  1.00  0.00    -0.476 C  
HETATM    2  N   UNL     1     -12.839  14.322  72.403  1.00  0.00    -0.353 NA 
HETATM    3  C   UNL     1     -14.275  14.143  72.184  1.00  0.00    -0.546 C  
ENDROOT
BRANCH   2   4
HETATM    4  C   UNL     1     -12.069  14.281  71.142  1.00  0.00    -0.336 C  
BRANCH   4   5
HETATM    5  C   UNL     1     -12.642  15.162  70.015  1.00  0.00    -0.263 C  
BRANCH   5   6
HETATM    6  C   UNL     1     -11.583  15.668  69.078  1.00  0.00    -0.396 A  
HETATM    7  C   UNL     1     -10.609  16.603  69.366  1.00  0.00    -0.333 A  
HETATM    8  N   UNL     1      -9.834  16.779  68.254  1.00  0.00    -0.248 NA 
HETATM    9  C   UNL     1     -10.277  15.972  67.232  1.00  0.00    -0.277 A  
HETATM   10  H   UNL     1      -9.041  17.417  68.190  1.00  0.00     0.000 HD 
HETATM   11  C   UNL     1      -9.788  15.811  65.932  1.00  0.00    -0.381 A  
HETATM   12  C   UNL     1     -10.451  14.907  65.094  1.00  0.00    -0.442 A  
HETATM   13  C   UNL     1     -11.570  14.189  65.533  1.00  0.00    -0.337 A  
HETATM   14  C   UNL     1     -12.022  14.356  66.854  1.00  0.00    -0.425 A  
HETATM   15  C   UNL     1     -11.376  15.266  67.718  1.00  0.00    -0.331 A  
BRANCH  13  16
HETATM   16  C   UNL     1     -12.277  13.233  64.599  1.00  0.00    -0.460 C  
BRANCH  16  17
HETATM   17  C   UNL     1     -11.538  11.907  64.424  1.00  0.00    -0.292 C  
HETATM   18  C   UNL     1     -10.409  11.935  63.411  1.00  0.00    -0.444 C  
HETATM   19  O   UNL     1      -9.514  10.911  63.872  1.00  0.00    -0.222 OA 
HETATM   20  C   UNL     1      -9.766  10.712  65.201  1.00  0.00    -0.271 C  
HETATM   21  N   UNL     1     -10.841  11.468  65.593  1.00  0.00    -0.272 NA 
HETATM   22  O   UNL     1      -9.154   9.943  65.921  1.00  0.00    -0.148 OA 
ENDBRANCH  16  17
ENDBRANCH  13  16
ENDBRANCH   5   6
ENDBRANCH   4   5
ENDBRANCH   2   4
TORSDOF 5
ENDMDL
MODEL       45
REMARK 921   NORMALIZED FREE ENERGY PREDICTED BY IDOCK:   -5.48 KCAL/MOL
REMARK 922        TOTAL FREE ENERGY PREDICTED BY IDOCK:   -7.52 KCAL/MOL
REMARK 923 INTER-LIGAND FREE ENERGY PREDICTED BY IDOCK:   -7.94 KCAL/MOL
REMARK 924 INTRA-LIGAND FREE ENERGY PREDICTED BY IDOCK:    0.42 KCAL/MOL
REMARK 927      BINDING AFFINITY PREDICTED BY RF-SCORE:    0.00 PKD
ROOT
HETATM    1  C   UNL     1     -14.286   8.658  72.253  1.00  0.00    -0.417 C  
HETATM    2  N   UNL     1     -12.826   8.782  72.164  1.00  0.00    -0.374 NA 
HETATM    3  C   UNL     1     -12.296   7.714  71.316  1.00  0.00    -0.309 C  
ENDROOT
BRANCH   2   4
HETATM    4  C   UNL     1     -12.476  10.127  71.659  1.00  0.00    -0.409 C  
BRANCH   4   5
HETATM    5  C   UNL     1     -11.162  10.185  70.856  1.00  0.00    -0.383 C  
BRANCH   5   6
HETATM    6  C   UNL     1     -11.356  10.714  69.464  1.00  0.00    -0.342 A  
HETATM    7  C   UNL     1     -11.348   9.978  68.297  1.00  0.00    -0.049 A  
HETATM    8  N   UNL     1     -11.574  10.825  67.247  1.00  0.00    -0.397 NA 
HETATM    9  C   UNL     1     -11.735  12.113  67.702  1.00  0.00    -0.316 A  
HETATM   10  H   UNL     1     -11.617  10.543  66.269  1.00  0.00     0.000 HD 
HETATM   11  C   UNL     1     -11.995  13.293  66.998  1.00  0.00    -0.419 A  
HETATM   12  C   UNL     1     -12.109  14.478  67.734  1.00  0.00    -0.269 A  
HETATM   13  C   UNL     1     -11.963  14.492  69.126  1.00  0.00    -0.344 A  
HETATM   14  C   UNL     1     -11.725  13.285  69.806  1.00  0.00    -0.354 A  
HETATM   15  C   UNL     1     -11.600  12.076  69.089  1.00  0.00    -0.370 A  
BRANCH  13  16
HETATM   16  C   UNL     1     -12.072  15.792  69.892  1.00  0.00    -0.315 C  
BRANCH  16  17
HETATM   17  C   UNL     1     -12.836  15.651  71.208  1.00  0.00    -0.487 C  
HETATM   18  C   UNL     1     -13.599  14.349  71.365  1.00  0.00    -0.360 C  
HETATM   19  O   UNL     1     -13.652  14.156  72.787  1.00  0.00    -0.596 OA 
HETATM   20  C   UNL     1     -12.634  14.882  73.339  1.00  0.00    -0.483 C  
HETATM   21  N   UNL     1     -12.000  15.614  72.368  1.00  0.00    -0.422 NA 
HETATM   22  O   UNL     1     -12.358  14.910  74.525  1.00  0.00    -0.526 OA 
ENDBRANCH  16  17
ENDBRANCH  13  16
ENDBRANCH   5   6
ENDBRANCH   4   5
ENDBRANCH   2   4
TORSDOF 5
ENDMDL
MODEL       46
REMARK 921   NORMALIZED FREE ENERGY PREDICTED BY IDOCK:   -5.45 KCAL/MOL
REMARK 922        TOTAL FREE ENERGY PREDICTED BY IDOCK:   -7.49 KCAL/MOL
REMARK 923 INTER-LIGAND FREE ENERGY PREDICTED BY IDOCK:   -7.09 KCAL/MOL
REMARK 924 INTRA-LIGAND FREE ENERGY PREDICTED BY IDOCK:   -0.40 KCAL/MOL
REMARK 927      BINDING AFFINITY PREDICTED BY RF-SCORE:    0.00 PKD
ROOT
HETATM    1  C   UNL     1     -10.617   9.932  68.965  1.00  0.00    -0.220 C  
HETATM    2  N   UNL     1     -11.841  10.720  69.156  1.00  0.00    -0.299 NA 
HETATM    3  C   UNL     1     -11.957  11.110  70.561  1.00  0.00    -0.380 C  
ENDROOT
BRANCH   2   4
HETATM    4  C   UNL     1     -11.823  11.887  68.248  1.00  0.00    -0.277 C  
BRANCH   4   5
HETATM    5  C   UNL     1     -11.262  11.595  66.844  1.00  0.00    -0.376 C  
BRANCH   5   6
HETATM    6  C   UNL     1     -11.658  12.633  65.833  1.00  0.00    -0.443 A  
HETATM    7  C   UNL     1     -12.523  12.460  64.773  1.00  0.00    -0.401 A  
HETATM    8  N   UNL     1     -12.629  13.646  64.100  1.00  0.00    -0.674 NA 
HETATM    9  C   UNL     1     -11.848  14.605  64.702  1.00  0.00    -0.452 A  
HETATM   10  H   UNL     1     -13.205  13.798  63.272  1.00  0.00     0.000 HD 
HETATM   11  C   UNL     1     -11.657  15.951  64.372  1.00  0.00    -0.234 A  
HETATM   12  C   UNL     1     -10.788  16.700  65.172  1.00  0.00    -0.199 A  
HETATM   13  C   UNL     1     -10.124  16.129  66.265  1.00  0.00    -0.337 A  
HETATM   14  C   UNL     1     -10.356  14.780  66.584  1.00  0.00    -0.273 A  
HETATM   15  C   UNL     1     -11.223  13.999  65.790  1.00  0.00    -0.303 A  
BRANCH  13  16
HETATM   16  C   UNL     1      -9.176  16.959  67.101  1.00  0.00    -0.238 C  
BRANCH  16  17
HETATM   17  C   UNL     1      -8.916  18.346  66.514  1.00  0.00    -0.286 C  
HETATM   18  C   UNL     1      -8.760  19.452  67.541  1.00  0.00    -0.304 C  
HETATM   19  O   UNL     1      -7.923  20.414  66.879  1.00  0.00    -0.309 OA 
HETATM   20  C   UNL     1      -7.245  19.758  65.890  1.00  0.00    -0.306 C  
HETATM   21  N   UNL     1      -7.678  18.459  65.807  1.00  0.00    -0.524 NA 
HETATM   22  O   UNL     1      -6.411  20.264  65.160  1.00  0.00    -0.254 OA 
ENDBRANCH  16  17
ENDBRANCH  13  16
ENDBRANCH   5   6
ENDBRANCH   4   5
ENDBRANCH   2   4
TORSDOF 5
ENDMDL
MODEL       47
REMARK 921   NORMALIZED FREE ENERGY PREDICTED BY IDOCK:   -5.44 KCAL/MOL
REMARK 922        TOTAL FREE ENERGY PREDICTED BY IDOCK:   -7.47 KCAL/MOL
REMARK 923 INTER-LIGAND FREE ENERGY PREDICTED BY IDOCK:   -7.02 KCAL/MOL
REMARK 924 INTRA-LIGAND FREE ENERGY PREDICTED BY IDOCK:   -0.45 KCAL/MOL
REMARK 927      BINDING AFFINITY PREDICTED BY RF-SCORE:    0.00 PKD
ROOT
HETATM    1  C   UNL     1      -8.260   8.799  68.166  1.00  0.00    -0.114 C  
HETATM    2  N   UNL     1      -9.230   7.889  67.548  1.00  0.00    -0.135 NA 
HETATM    3  C   UNL     1     -10.577   8.216  68.019  1.00  0.00    -0.126 C  
ENDROOT
BRANCH   2   4
HETATM    4  C   UNL     1      -9.116   7.971  66.076  1.00  0.00    -0.142 C  
BRANCH   4   5
HETATM    5  C   UNL     1      -8.427   9.249  65.560  1.00  0.00    -0.151 C  
BRANCH   5   6
HETATM    6  C   UNL     1      -9.255   9.985  64.545  1.00  0.00    -0.313 A  
HETATM    7  C   UNL     1      -9.214   9.822  63.176  1.00  0.00    -0.186 A  
HETATM    8  N   UNL     1     -10.129  10.665  62.610  1.00  0.00    -0.763 NA 
HETATM    9  C   UNL     1     -10.779  11.384  63.585  1.00  0.00    -0.401 A  
HETATM   10  H   UNL     1     -10.304  10.749  61.609  1.00  0.00     0.000 HD 
HETATM   11  C   UNL     1     -11.792  12.343  63.475  1.00  0.00    -0.605 A  
HETATM   12  C   UNL     1     -12.271  12.922  64.656  1.00  0.00    -0.494 A  
HETATM   13  C   UNL     1     -11.757  12.563  65.908  1.00  0.00    -0.480 A  
HETATM   14  C   UNL     1     -10.756  11.578  65.985  1.00  0.00    -0.332 A  
HETATM   15  C   UNL     1     -10.250  10.982  64.810  1.00  0.00    -0.381 A  
BRANCH  13  16
HETATM   16  C   UNL     1     -12.281  13.219  67.165  1.00  0.00    -0.281 C  
BRANCH  16  17
HETATM   17  C   UNL     1     -11.725  12.596  68.445  1.00  0.00    -0.333 C  
HETATM   18  C   UNL     1     -12.083  13.335  69.720  1.00  0.00    -0.290 C  
HETATM   19  O   UNL     1     -12.057  12.309  70.725  1.00  0.00    -0.340 OA 
HETATM   20  C   UNL     1     -12.222  11.108  70.092  1.00  0.00    -0.337 C  
HETATM   21  N   UNL     1     -12.241  11.294  68.733  1.00  0.00    -0.525 NA 
HETATM   22  O   UNL     1     -12.295  10.028  70.650  1.00  0.00    -0.285 OA 
ENDBRANCH  16  17
ENDBRANCH  13  16
ENDBRANCH   5   6
ENDBRANCH   4   5
ENDBRANCH   2   4
TORSDOF 5
ENDMDL
MODEL       48
REMARK 921   NORMALIZED FREE ENERGY PREDICTED BY IDOCK:   -5.39 KCAL/MOL
REMARK 922        TOTAL FREE ENERGY PREDICTED BY IDOCK:   -7.41 KCAL/MOL
REMARK 923 INTER-LIGAND FREE ENERGY PREDICTED BY IDOCK:   -6.81 KCAL/MOL
REMARK 924 INTRA-LIGAND FREE ENERGY PREDICTED BY IDOCK:   -0.60 KCAL/MOL
REMARK 927      BINDING AFFINITY PREDICTED BY RF-SCORE:    0.00 PKD
ROOT
HETATM    1  C   UNL     1     -11.844  13.557  69.875  1.00  0.00    -0.316 C  
HETATM    2  N   UNL     1     -11.959  14.852  69.194  1.00  0.00    -0.297 NA 
HETATM    3  C   UNL     1     -11.456  15.911  70.069  1.00  0.00    -0.354 C  
ENDROOT
BRANCH   2   4
HETATM    4  C   UNL     1     -11.236  14.797  67.905  1.00  0.00    -0.306 C  
BRANCH   4   5
HETATM    5  C   UNL     1     -12.080  14.294  66.720  1.00  0.00    -0.446 C  
BRANCH   5   6
HETATM    6  C   UNL     1     -11.281  13.483  65.740  1.00  0.00    -0.308 A  
HETATM    7  C   UNL     1     -10.845  13.891  64.497  1.00  0.00    -0.368 A  
HETATM    8  N   UNL     1     -10.140  12.868  63.925  1.00  0.00    -0.705 NA 
HETATM    9  C   UNL     1     -10.100  11.787  64.774  1.00  0.00    -0.263 A  
HETATM   10  H   UNL     1      -9.707  12.902  63.003  1.00  0.00     0.000 HD 
HETATM   11  C   UNL     1      -9.487  10.539  64.618  1.00  0.00    -0.316 A  
HETATM   12  C   UNL     1      -9.615   9.616  65.662  1.00  0.00    -0.338 A  
HETATM   13  C   UNL     1     -10.334   9.920  66.824  1.00  0.00    -0.285 A  
HETATM   14  C   UNL     1     -10.918  11.192  66.960  1.00  0.00    -0.348 A  
HETATM   15  C   UNL     1     -10.810  12.140  65.920  1.00  0.00    -0.316 A  
BRANCH  13  16
HETATM   16  C   UNL     1     -10.471   8.896  67.927  1.00  0.00    -0.281 C  
BRANCH  16  17
HETATM   17  C   UNL     1     -10.307   9.492  69.325  1.00  0.00    -0.208 C  
HETATM   18  C   UNL     1     -11.513   9.330  70.231  1.00  0.00    -0.162 C  
HETATM   19  O   UNL     1     -10.948   9.333  71.552  1.00  0.00    -0.336 OA 
HETATM   20  C   UNL     1      -9.631   8.985  71.437  1.00  0.00    -0.285 C  
HETATM   21  N   UNL     1      -9.292   8.865  70.113  1.00  0.00    -0.170 NA 
HETATM   22  O   UNL     1      -8.861   8.845  72.370  1.00  0.00    -0.396 OA 
ENDBRANCH  16  17
ENDBRANCH  13  16
ENDBRANCH   5   6
ENDBRANCH   4   5
ENDBRANCH   2   4
TORSDOF 5
ENDMDL
MODEL       49
REMARK 921   NORMALIZED FREE ENERGY PREDICTED BY IDOCK:   -5.39 KCAL/MOL
REMARK 922        TOTAL FREE ENERGY PREDICTED BY IDOCK:   -7.40 KCAL/MOL
REMARK 923 INTER-LIGAND FREE ENERGY PREDICTED BY IDOCK:   -7.04 KCAL/MOL
REMARK 924 INTRA-LIGAND FREE ENERGY PREDICTED BY IDOCK:   -0.36 KCAL/MOL
REMARK 927      BINDING AFFINITY PREDICTED BY RF-SCORE:    0.00 PKD
ROOT
HETATM    1  C   UNL     1     -12.904  10.862  71.090  1.00  0.00    -0.409 C  
HETATM    2  N   UNL     1     -11.746   9.978  71.265  1.00  0.00    -0.376 NA 
HETATM    3  C   UNL     1     -12.146   8.793  72.025  1.00  0.00    -0.377 C  
ENDROOT
BRANCH   2   4
HETATM    4  C   UNL     1     -11.184   9.633  69.942  1.00  0.00    -0.207 C  
BRANCH   4   5
HETATM    5  C   UNL     1     -11.496  10.653  68.831  1.00  0.00    -0.334 C  
BRANCH   5   6
HETATM    6  C   UNL     1     -10.913  10.261  67.503  1.00  0.00    -0.344 A  
HETATM    7  C   UNL     1     -10.412   9.023  67.158  1.00  0.00    -0.263 A  
HETATM    8  N   UNL     1      -9.991   9.071  65.858  1.00  0.00    -0.436 NA 
HETATM    9  C   UNL     1     -10.209  10.323  65.334  1.00  0.00    -0.242 A  
HETATM   10  H   UNL     1      -9.576   8.290  65.350  1.00  0.00     0.000 HD 
HETATM   11  C   UNL     1      -9.950  10.823  64.053  1.00  0.00    -0.403 A  
HETATM   12  C   UNL     1     -10.277  12.160  63.798  1.00  0.00    -0.449 A  
HETATM   13  C   UNL     1     -10.839  12.977  64.786  1.00  0.00    -0.357 A  
HETATM   14  C   UNL     1     -11.108  12.437  66.056  1.00  0.00    -0.344 A  
HETATM   15  C   UNL     1     -10.783  11.094  66.343  1.00  0.00    -0.303 A  
BRANCH  13  16
HETATM   16  C   UNL     1     -11.164  14.423  64.486  1.00  0.00    -0.314 C  
BRANCH  16  17
HETATM   17  C   UNL     1     -10.670  15.386  65.565  1.00  0.00    -0.384 C  
HETATM   18  C   UNL     1      -9.172  15.360  65.804  1.00  0.00    -0.137 C  
HETATM   19  O   UNL     1      -8.883  16.680  66.292  1.00  0.00    -0.279 OA 
HETATM   20  C   UNL     1      -9.895  17.502  65.879  1.00  0.00    -0.094 C  
HETATM   21  N   UNL     1     -10.869  16.767  65.251  1.00  0.00    -0.509 NA 
HETATM   22  O   UNL     1      -9.946  18.702  66.079  1.00  0.00    -0.485 OA 
ENDBRANCH  16  17
ENDBRANCH  13  16
ENDBRANCH   5   6
ENDBRANCH   4   5
ENDBRANCH   2   4
TORSDOF 5
ENDMDL
MODEL       50
REMARK 921   NORMALIZED FREE ENERGY PREDICTED BY IDOCK:   -5.37 KCAL/MOL
REMARK 922        TOTAL FREE ENERGY PREDICTED BY IDOCK:   -7.38 KCAL/MOL
REMARK 923 INTER-LIGAND FREE ENERGY PREDICTED BY IDOCK:   -6.97 KCAL/MOL
REMARK 924 INTRA-LIGAND FREE ENERGY PREDICTED BY IDOCK:   -0.41 KCAL/MOL
REMARK 927      BINDING AFFINITY PREDICTED BY RF-SCORE:    0.00 PKD
ROOT
HETATM    1  C   UNL     1     -10.484   9.545  68.609  1.00  0.00    -0.211 C  
HETATM    2  N   UNL     1      -9.486   9.248  67.575  1.00  0.00    -0.130 NA 
HETATM    3  C   UNL     1      -9.921   8.091  66.793  1.00  0.00    -0.274 C  
ENDROOT
BRANCH   2   4
HETATM    4  C   UNL     1      -9.275  10.447  66.735  1.00  0.00    -0.155 C  
BRANCH   4   5
HETATM    5  C   UNL     1     -10.547  10.972  66.041  1.00  0.00    -0.275 C  
BRANCH   5   6
HETATM    6  C   UNL     1     -10.408  12.392  65.573  1.00  0.00    -0.298 A  
HETATM    7  C   UNL     1     -10.293  12.820  64.267  1.00  0.00    -0.377 A  
HETATM    8  N   UNL     1     -10.202  14.184  64.262  1.00  0.00    -0.602 NA 
HETATM    9  C   UNL     1     -10.259  14.668  65.548  1.00  0.00    -0.370 A  
HETATM   10  H   UNL     1     -10.106  14.759  63.426  1.00  0.00     0.000 HD 
HETATM   11  C   UNL     1     -10.217  15.985  66.019  1.00  0.00    -0.360 A  
HETATM   12  C   UNL     1     -10.293  16.184  67.402  1.00  0.00    -0.294 A  
HETATM   13  C   UNL     1     -10.401  15.108  68.291  1.00  0.00    -0.231 A  
HETATM   14  C   UNL     1     -10.465  13.798  67.784  1.00  0.00    -0.240 A  
HETATM   15  C   UNL     1     -10.384  13.568  66.393  1.00  0.00    -0.289 A  
BRANCH  13  16
HETATM   16  C   UNL     1     -10.462  15.353  69.782  1.00  0.00    -0.303 C  
BRANCH  16  17
HETATM   17  C   UNL     1     -11.887  15.535  70.303  1.00  0.00    -0.357 C  
HETATM   18  C   UNL     1     -12.660  14.245  70.507  1.00  0.00    -0.353 C  
HETATM   19  O   UNL     1     -13.601  14.573  71.541  1.00  0.00    -0.356 OA 
HETATM   20  C   UNL     1     -13.108  15.653  72.219  1.00  0.00    -0.456 C  
HETATM   21  N   UNL     1     -11.963  16.103  71.613  1.00  0.00    -0.481 NA 
HETATM   22  O   UNL     1     -13.631  16.167  73.191  1.00  0.00    -0.562 OA 
ENDBRANCH  16  17
ENDBRANCH  13  16
ENDBRANCH   5   6
ENDBRANCH   4   5
ENDBRANCH   2   4
TORSDOF 5
ENDMDL
MODEL       51
REMARK 921   NORMALIZED FREE ENERGY PREDICTED BY IDOCK:   -5.37 KCAL/MOL
REMARK 922        TOTAL FREE ENERGY PREDICTED BY IDOCK:   -7.38 KCAL/MOL
REMARK 923 INTER-LIGAND FREE ENERGY PREDICTED BY IDOCK:   -6.84 KCAL/MOL
REMARK 924 INTRA-LIGAND FREE ENERGY PREDICTED BY IDOCK:   -0.53 KCAL/MOL
REMARK 927      BINDING AFFINITY PREDICTED BY RF-SCORE:    0.00 PKD
ROOT
HETATM    1  C   UNL     1      -8.982  15.926  69.081  1.00  0.00    -0.256 C  
HETATM    2  N   UNL     1     -10.313  16.452  69.407  1.00  0.00    -0.283 NA 
HETATM    3  C   UNL     1     -11.143  16.464  68.202  1.00  0.00    -0.320 C  
ENDROOT
BRANCH   2   4
HETATM    4  C   UNL     1     -10.911  15.645  70.492  1.00  0.00    -0.326 C  
BRANCH   4   5
HETATM    5  C   UNL     1     -12.420  15.381  70.334  1.00  0.00    -0.447 C  
BRANCH   5   6
HETATM    6  C   UNL     1     -12.887  14.192  71.125  1.00  0.00    -0.431 A  
HETATM    7  C   UNL     1     -13.710  14.214  72.232  1.00  0.00    -0.526 A  
HETATM    8  N   UNL     1     -13.910  12.927  72.651  1.00  0.00    -0.721 NA 
HETATM    9  C   UNL     1     -13.233  12.052  71.835  1.00  0.00    -0.364 A  
HETATM   10  H   UNL     1     -14.478  12.657  73.453  1.00  0.00     0.000 HD 
HETATM   11  C   UNL     1     -13.158  10.656  71.874  1.00  0.00    -0.563 A  
HETATM   12  C   UNL     1     -12.379  10.018  70.902  1.00  0.00    -0.438 A  
HETATM   13  C   UNL     1     -11.689  10.745  69.925  1.00  0.00    -0.412 A  
HETATM   14  C   UNL     1     -11.804  12.146  69.899  1.00  0.00    -0.392 A  
HETATM   15  C   UNL     1     -12.578  12.816  70.870  1.00  0.00    -0.342 A  
BRANCH  13  16
HETATM   16  C   UNL     1     -10.839  10.029  68.899  1.00  0.00    -0.250 C  
BRANCH  16  17
HETATM   17  C   UNL     1      -9.428  10.604  68.782  1.00  0.00    -0.183 C  
HETATM   18  C   UNL     1      -8.317   9.650  69.179  1.00  0.00    -0.130 C  
HETATM   19  O   UNL     1      -7.191  10.103  68.412  1.00  0.00    -0.074 OA 
HETATM   20  C   UNL     1      -7.676  10.809  67.346  1.00  0.00    -0.107 C  
HETATM   21  N   UNL     1      -9.038  10.929  67.445  1.00  0.00    -0.140 NA 
HETATM   22  O   UNL     1      -6.994  11.297  66.463  1.00  0.00    -0.140 OA 
ENDBRANCH  16  17
ENDBRANCH  13  16
ENDBRANCH   5   6
ENDBRANCH   4   5
ENDBRANCH   2   4
TORSDOF 5
ENDMDL
MODEL       52
REMARK 921   NORMALIZED FREE ENERGY PREDICTED BY IDOCK:   -5.34 KCAL/MOL
REMARK 922        TOTAL FREE ENERGY PREDICTED BY IDOCK:   -7.33 KCAL/MOL
REMARK 923 INTER-LIGAND FREE ENERGY PREDICTED BY IDOCK:   -6.75 KCAL/MOL
REMARK 924 INTRA-LIGAND FREE ENERGY PREDICTED BY IDOCK:   -0.59 KCAL/MOL
REMARK 927      BINDING AFFINITY PREDICTED BY RF-SCORE:    0.00 PKD
ROOT
HETATM    1  C   UNL     1      -8.227   8.542  68.350  1.00  0.00    -0.123 C  
HETATM    2  N   UNL     1      -9.637   8.336  68.002  1.00  0.00    -0.150 NA 
HETATM    3  C   UNL     1     -10.464   9.308  68.720  1.00  0.00    -0.210 C  
ENDROOT
BRANCH   2   4
HETATM    4  C   UNL     1      -9.803   8.433  66.536  1.00  0.00    -0.268 C  
BRANCH   4   5
HETATM    5  C   UNL     1      -8.837   9.416  65.848  1.00  0.00    -0.193 C  
BRANCH   5   6
HETATM    6  C   UNL     1      -9.490  10.191  64.739  1.00  0.00    -0.355 A  
HETATM    7  C   UNL     1      -9.327   9.983  63.385  1.00  0.00    -0.257 A  
HETATM    8  N   UNL     1     -10.102  10.885  62.710  1.00  0.00    -0.720 NA 
HETATM    9  C   UNL     1     -10.779  11.688  63.598  1.00  0.00    -0.435 A  
HETATM   10  H   UNL     1     -10.168  10.954  61.695  1.00  0.00     0.000 HD 
HETATM   11  C   UNL     1     -11.684  12.728  63.365  1.00  0.00    -0.556 A  
HETATM   12  C   UNL     1     -12.224  13.382  64.478  1.00  0.00    -0.450 A  
HETATM   13  C   UNL     1     -11.872  13.018  65.784  1.00  0.00    -0.453 A  
HETATM   14  C   UNL     1     -10.977  11.952  65.984  1.00  0.00    -0.355 A  
HETATM   15  C   UNL     1     -10.413  11.279  64.879  1.00  0.00    -0.375 A  
BRANCH  13  16
HETATM   16  C   UNL     1     -12.458  13.756  66.966  1.00  0.00    -0.146 C  
BRANCH  16  17
HETATM   17  C   UNL     1     -11.495  13.854  68.149  1.00  0.00    -0.312 C  
HETATM   18  C   UNL     1     -10.427  14.923  68.013  1.00  0.00    -0.246 C  
HETATM   19  O   UNL     1     -10.118  15.268  69.373  1.00  0.00    -0.239 OA 
HETATM   20  C   UNL     1     -11.187  14.905  70.143  1.00  0.00    -0.239 C  
HETATM   21  N   UNL     1     -12.115  14.248  69.376  1.00  0.00    -0.326 NA 
HETATM   22  O   UNL     1     -11.282  15.096  71.342  1.00  0.00    -0.339 OA 
ENDBRANCH  16  17
ENDBRANCH  13  16
ENDBRANCH   5   6
ENDBRANCH   4   5
ENDBRANCH   2   4
TORSDOF 5
ENDMDL
MODEL       53
REMARK 921   NORMALIZED FREE ENERGY PREDICTED BY IDOCK:   -5.33 KCAL/MOL
REMARK 922        TOTAL FREE ENERGY PREDICTED BY IDOCK:   -7.33 KCAL/MOL
REMARK 923 INTER-LIGAND FREE ENERGY PREDICTED BY IDOCK:   -6.78 KCAL/MOL
REMARK 924 INTRA-LIGAND FREE ENERGY PREDICTED BY IDOCK:   -0.55 KCAL/MOL
REMARK 927      BINDING AFFINITY PREDICTED BY RF-SCORE:    0.00 PKD
ROOT
HETATM    1  C   UNL     1      -8.980   8.808  65.348  1.00  0.00    -0.160 C  
HETATM    2  N   UNL     1      -9.590   9.810  66.231  1.00  0.00    -0.196 NA 
HETATM    3  C   UNL     1     -10.310  10.798  65.426  1.00  0.00    -0.247 C  
ENDROOT
BRANCH   2   4
HETATM    4  C   UNL     1     -10.469   9.134  67.209  1.00  0.00    -0.265 C  
BRANCH   4   5
HETATM    5  C   UNL     1      -9.982   9.216  68.668  1.00  0.00    -0.185 C  
BRANCH   5   6
HETATM    6  C   UNL     1     -10.936   9.961  69.558  1.00  0.00    -0.274 A  
HETATM    7  C   UNL     1     -11.691   9.428  70.583  1.00  0.00    -0.240 A  
HETATM    8  N   UNL     1     -12.418  10.434  71.156  1.00  0.00    -0.366 NA 
HETATM    9  C   UNL     1     -12.154  11.628  70.528  1.00  0.00    -0.366 A  
HETATM   10  H   UNL     1     -13.062  10.315  71.937  1.00  0.00     0.000 HD 
HETATM   11  C   UNL     1     -12.652  12.910  70.782  1.00  0.00    -0.314 A  
HETATM   12  C   UNL     1     -12.202  13.956  69.968  1.00  0.00    -0.408 A  
HETATM   13  C   UNL     1     -11.289  13.734  68.929  1.00  0.00    -0.328 A  
HETATM   14  C   UNL     1     -10.789  12.437  68.716  1.00  0.00    -0.263 A  
HETATM   15  C   UNL     1     -11.231  11.363  69.518  1.00  0.00    -0.322 A  
BRANCH  13  16
HETATM   16  C   UNL     1     -10.836  14.881  68.054  1.00  0.00    -0.263 C  
BRANCH  16  17
HETATM   17  C   UNL     1     -11.037  14.614  66.562  1.00  0.00    -0.329 C  
HETATM   18  C   UNL     1     -12.424  14.131  66.183  1.00  0.00    -0.395 C  
HETATM   19  O   UNL     1     -12.576  14.571  64.825  1.00  0.00    -0.567 OA 
HETATM   20  C   UNL     1     -11.702  15.602  64.625  1.00  0.00    -0.190 C  
HETATM   21  N   UNL     1     -10.922  15.778  65.740  1.00  0.00    -0.263 NA 
HETATM   22  O   UNL     1     -11.600  16.243  63.594  1.00  0.00    -0.836 OA 
ENDBRANCH  16  17
ENDBRANCH  13  16
ENDBRANCH   5   6
ENDBRANCH   4   5
ENDBRANCH   2   4
TORSDOF 5
ENDMDL
MODEL       54
REMARK 921   NORMALIZED FREE ENERGY PREDICTED BY IDOCK:   -5.32 KCAL/MOL
REMARK 922        TOTAL FREE ENERGY PREDICTED BY IDOCK:   -7.32 KCAL/MOL
REMARK 923 INTER-LIGAND FREE ENERGY PREDICTED BY IDOCK:   -6.94 KCAL/MOL
REMARK 924 INTRA-LIGAND FREE ENERGY PREDICTED BY IDOCK:   -0.38 KCAL/MOL
REMARK 927      BINDING AFFINITY PREDICTED BY RF-SCORE:    0.00 PKD
ROOT
HETATM    1  C   UNL     1      -9.858  19.366  68.691  1.00  0.00    -0.443 C  
HETATM    2  N   UNL     1      -8.653  19.066  67.910  1.00  0.00    -0.293 NA 
HETATM    3  C   UNL     1      -7.617  18.530  68.795  1.00  0.00    -0.284 C  
ENDROOT
BRANCH   2   4
HETATM    4  C   UNL     1      -8.994  18.133  66.815  1.00  0.00    -0.282 C  
BRANCH   4   5
HETATM    5  C   UNL     1      -9.916  16.971  67.231  1.00  0.00    -0.275 C  
BRANCH   5   6
HETATM    6  C   UNL     1     -10.624  16.345  66.064  1.00  0.00    -0.275 A  
HETATM    7  C   UNL     1     -10.962  16.966  64.879  1.00  0.00    -0.001 A  
HETATM    8  N   UNL     1     -11.582  16.053  64.071  1.00  0.00    -1.278 NA 
HETATM    9  C   UNL     1     -11.657  14.834  64.702  1.00  0.00    -0.399 A  
HETATM   10  H   UNL     1     -11.937  16.248  63.135  1.00  0.00     0.000 HD 
HETATM   11  C   UNL     1     -12.190  13.619  64.258  1.00  0.00    -0.445 A  
HETATM   12  C   UNL     1     -12.130  12.525  65.130  1.00  0.00    -0.503 A  
HETATM   13  C   UNL     1     -11.565  12.636  66.406  1.00  0.00    -0.441 A  
HETATM   14  C   UNL     1     -11.016  13.865  66.812  1.00  0.00    -0.301 A  
HETATM   15  C   UNL     1     -11.068  14.986  65.956  1.00  0.00    -0.329 A  
BRANCH  13  16
HETATM   16  C   UNL     1     -11.532  11.441  67.332  1.00  0.00    -0.328 C  
BRANCH  16  17
HETATM   17  C   UNL     1     -10.256  10.611  67.197  1.00  0.00    -0.216 C  
HETATM   18  C   UNL     1      -9.879   9.817  68.434  1.00  0.00    -0.152 C  
HETATM   19  O   UNL     1      -9.139   8.704  67.909  1.00  0.00    -0.139 OA 
HETATM   20  C   UNL     1      -9.496   8.552  66.599  1.00  0.00    -0.207 C  
HETATM   21  N   UNL     1     -10.337   9.569  66.222  1.00  0.00    -0.209 NA 
HETATM   22  O   UNL     1      -9.092   7.672  65.861  1.00  0.00    -0.145 OA 
ENDBRANCH  16  17
ENDBRANCH  13  16
ENDBRANCH   5   6
ENDBRANCH   4   5
ENDBRANCH   2   4
TORSDOF 5
ENDMDL
MODEL       55
REMARK 921   NORMALIZED FREE ENERGY PREDICTED BY IDOCK:   -5.31 KCAL/MOL
REMARK 922        TOTAL FREE ENERGY PREDICTED BY IDOCK:   -7.31 KCAL/MOL
REMARK 923 INTER-LIGAND FREE ENERGY PREDICTED BY IDOCK:   -6.73 KCAL/MOL
REMARK 924 INTRA-LIGAND FREE ENERGY PREDICTED BY IDOCK:   -0.57 KCAL/MOL
REMARK 927      BINDING AFFINITY PREDICTED BY RF-SCORE:    0.00 PKD
ROOT
HETATM    1  C   UNL     1      -8.558   6.352  67.535  1.00  0.00    -0.115 C  
HETATM    2  N   UNL     1      -9.754   6.953  68.135  1.00  0.00    -0.130 NA 
HETATM    3  C   UNL     1     -10.900   6.753  67.247  1.00  0.00    -0.373 C  
ENDROOT
BRANCH   2   4
HETATM    4  C   UNL     1      -9.977   6.375  69.478  1.00  0.00    -0.162 C  
BRANCH   4   5
HETATM    5  C   UNL     1      -9.557   7.288  70.644  1.00  0.00    -0.172 C  
BRANCH   5   6
HETATM    6  C   UNL     1     -10.724   7.988  71.282  1.00  0.00    -0.265 A  
HETATM    7  C   UNL     1     -11.515   7.502  72.303  1.00  0.00    -0.303 A  
HETATM    8  N   UNL     1     -12.457   8.445  72.609  1.00  0.00    -0.587 NA 
HETATM    9  C   UNL     1     -12.300   9.551  71.807  1.00  0.00    -0.394 A  
HETATM   10  H   UNL     1     -13.173   8.343  73.327  1.00  0.00     0.000 HD 
HETATM   11  C   UNL     1     -13.019  10.751  71.773  1.00  0.00    -0.568 A  
HETATM   12  C   UNL     1     -12.632  11.715  70.835  1.00  0.00    -0.409 A  
HETATM   13  C   UNL     1     -11.567  11.492  69.953  1.00  0.00    -0.387 A  
HETATM   14  C   UNL     1     -10.850  10.285  70.029  1.00  0.00    -0.364 A  
HETATM   15  C   UNL     1     -11.223   9.293  70.961  1.00  0.00    -0.392 A  
BRANCH  13  16
HETATM   16  C   UNL     1     -11.184  12.545  68.938  1.00  0.00    -0.330 C  
BRANCH  16  17
HETATM   17  C   UNL     1     -11.525  12.147  67.502  1.00  0.00    -0.340 C  
HETATM   18  C   UNL     1     -12.128  13.256  66.660  1.00  0.00    -0.361 C  
HETATM   19  O   UNL     1     -11.756  12.904  65.319  1.00  0.00    -0.329 OA 
HETATM   20  C   UNL     1     -10.669  12.078  65.396  1.00  0.00    -0.287 C  
HETATM   21  N   UNL     1     -10.390  11.793  66.708  1.00  0.00    -0.214 NA 
HETATM   22  O   UNL     1     -10.065  11.627  64.440  1.00  0.00    -0.253 OA 
ENDBRANCH  16  17
ENDBRANCH  13  16
ENDBRANCH   5   6
ENDBRANCH   4   5
ENDBRANCH   2   4
TORSDOF 5
ENDMDL
MODEL       56
REMARK 921   NORMALIZED FREE ENERGY PREDICTED BY IDOCK:   -5.27 KCAL/MOL
REMARK 922        TOTAL FREE ENERGY PREDICTED BY IDOCK:   -7.25 KCAL/MOL
REMARK 923 INTER-LIGAND FREE ENERGY PREDICTED BY IDOCK:   -6.89 KCAL/MOL
REMARK 924 INTRA-LIGAND FREE ENERGY PREDICTED BY IDOCK:   -0.36 KCAL/MOL
REMARK 927      BINDING AFFINITY PREDICTED BY RF-SCORE:    0.00 PKD
ROOT
HETATM    1  C   UNL     1     -10.336  19.941  68.219  1.00  0.00    -0.393 C  
HETATM    2  N   UNL     1     -10.194  19.277  66.919  1.00  0.00    -0.368 NA 
HETATM    3  C   UNL     1     -10.751  20.133  65.870  1.00  0.00    -0.175 C  
ENDROOT
BRANCH   2   4
HETATM    4  C   UNL     1      -8.771  18.954  66.683  1.00  0.00    -0.312 C  
BRANCH   4   5
HETATM    5  C   UNL     1      -8.496  17.470  66.376  1.00  0.00    -0.287 C  
BRANCH   5   6
HETATM    6  C   UNL     1      -8.964  16.554  67.471  1.00  0.00    -0.201 A  
HETATM    7  C   UNL     1      -8.444  16.463  68.745  1.00  0.00    -0.249 A  
HETATM    8  N   UNL     1      -9.155  15.524  69.439  1.00  0.00    -0.273 NA 
HETATM    9  C   UNL     1     -10.142  14.992  68.644  1.00  0.00    -0.233 A  
HETATM   10  H   UNL     1      -8.978  15.257  70.407  1.00  0.00     0.000 HD 
HETATM   11  C   UNL     1     -11.108  14.022  68.932  1.00  0.00    -0.296 A  
HETATM   12  C   UNL     1     -11.998  13.667  67.911  1.00  0.00    -0.382 A  
HETATM   13  C   UNL     1     -11.927  14.253  66.642  1.00  0.00    -0.454 A  
HETATM   14  C   UNL     1     -10.959  15.243  66.392  1.00  0.00    -0.299 A  
HETATM   15  C   UNL     1     -10.046  15.615  67.401  1.00  0.00    -0.251 A  
BRANCH  13  16
HETATM   16  C   UNL     1     -12.890  13.836  65.554  1.00  0.00    -0.464 C  
BRANCH  16  17
HETATM   17  C   UNL     1     -12.473  12.548  64.844  1.00  0.00    -0.450 C  
HETATM   18  C   UNL     1     -11.976  12.737  63.423  1.00  0.00    -0.535 C  
HETATM   19  O   UNL     1     -11.084  11.628  63.226  1.00  0.00    -0.354 OA 
HETATM   20  C   UNL     1     -10.684  11.197  64.459  1.00  0.00    -0.297 C  
HETATM   21  N   UNL     1     -11.350  11.891  65.437  1.00  0.00    -0.308 NA 
HETATM   22  O   UNL     1      -9.887  10.298  64.661  1.00  0.00    -0.313 OA 
ENDBRANCH  16  17
ENDBRANCH  13  16
ENDBRANCH   5   6
ENDBRANCH   4   5
ENDBRANCH   2   4
TORSDOF 5
ENDMDL
MODEL       57
REMARK 921   NORMALIZED FREE ENERGY PREDICTED BY IDOCK:   -5.26 KCAL/MOL
REMARK 922        TOTAL FREE ENERGY PREDICTED BY IDOCK:   -7.24 KCAL/MOL
REMARK 923 INTER-LIGAND FREE ENERGY PREDICTED BY IDOCK:   -6.60 KCAL/MOL
REMARK 924 INTRA-LIGAND FREE ENERGY PREDICTED BY IDOCK:   -0.63 KCAL/MOL
REMARK 927      BINDING AFFINITY PREDICTED BY RF-SCORE:    0.00 PKD
ROOT
HETATM    1  C   UNL     1     -10.218  19.534  66.075  1.00  0.00    -0.478 C  
HETATM    2  N   UNL     1      -9.661  20.260  67.222  1.00  0.00    -0.426 NA 
HETATM    3  C   UNL     1     -10.524  20.068  68.388  1.00  0.00    -0.230 C  
ENDROOT
BRANCH   2   4
HETATM    4  C   UNL     1      -8.276  19.806  67.468  1.00  0.00    -0.312 C  
BRANCH   4   5
HETATM    5  C   UNL     1      -8.067  19.097  68.819  1.00  0.00    -0.384 C  
BRANCH   5   6
HETATM    6  C   UNL     1      -7.722  17.643  68.665  1.00  0.00    -0.281 A  
HETATM    7  C   UNL     1      -6.480  17.119  68.375  1.00  0.00    -0.158 A  
HETATM    8  N   UNL     1      -6.581  15.756  68.334  1.00  0.00    -0.112 NA 
HETATM    9  C   UNL     1      -7.874  15.368  68.595  1.00  0.00    -0.142 A  
HETATM   10  H   UNL     1      -5.809  15.119  68.137  1.00  0.00     0.000 HD 
HETATM   11  C   UNL     1      -8.435  14.088  68.670  1.00  0.00    -0.103 A  
HETATM   12  C   UNL     1      -9.802  13.992  68.954  1.00  0.00    -0.077 A  
HETATM   13  C   UNL     1     -10.590  15.132  69.153  1.00  0.00    -0.256 A  
HETATM   14  C   UNL     1      -9.990  16.403  69.094  1.00  0.00    -0.273 A  
HETATM   15  C   UNL     1      -8.615  16.529  68.803  1.00  0.00    -0.262 A  
BRANCH  13  16
HETATM   16  C   UNL     1     -12.068  14.998  69.440  1.00  0.00    -0.290 C  
BRANCH  16  17
HETATM   17  C   UNL     1     -12.472  15.578  70.795  1.00  0.00    -0.440 C  
HETATM   18  C   UNL     1     -13.903  15.292  71.209  1.00  0.00    -0.478 C  
HETATM   19  O   UNL     1     -13.853  15.319  72.644  1.00  0.00    -0.480 OA 
HETATM   20  C   UNL     1     -12.557  15.090  73.015  1.00  0.00    -0.437 C  
HETATM   21  N   UNL     1     -11.756  15.028  71.904  1.00  0.00    -0.391 NA 
HETATM   22  O   UNL     1     -12.165  15.000  74.164  1.00  0.00    -0.595 OA 
ENDBRANCH  16  17
ENDBRANCH  13  16
ENDBRANCH   5   6
ENDBRANCH   4   5
ENDBRANCH   2   4
TORSDOF 5
ENDMDL
MODEL       58
REMARK 921   NORMALIZED FREE ENERGY PREDICTED BY IDOCK:   -5.24 KCAL/MOL
REMARK 922        TOTAL FREE ENERGY PREDICTED BY IDOCK:   -7.22 KCAL/MOL
REMARK 923 INTER-LIGAND FREE ENERGY PREDICTED BY IDOCK:   -7.55 KCAL/MOL
REMARK 924 INTRA-LIGAND FREE ENERGY PREDICTED BY IDOCK:    0.33 KCAL/MOL
REMARK 927      BINDING AFFINITY PREDICTED BY RF-SCORE:    0.00 PKD
ROOT
HETATM    1  C   UNL     1      -8.631   6.399  67.896  1.00  0.00    -0.116 C  
HETATM    2  N   UNL     1      -9.545   6.553  66.759  1.00  0.00    -0.156 NA 
HETATM    3  C   UNL     1     -10.042   5.239  66.349  1.00  0.00    -0.226 C  
ENDROOT
BRANCH   2   4
HETATM    4  C   UNL     1     -10.639   7.477  67.128  1.00  0.00    -0.345 C  
BRANCH   4   5
HETATM    5  C   UNL     1     -10.235   8.963  67.163  1.00  0.00    -0.339 C  
BRANCH   5   6
HETATM    6  C   UNL     1     -10.780   9.684  68.363  1.00  0.00    -0.251 A  
HETATM    7  C   UNL     1     -10.977   9.155  69.621  1.00  0.00    -0.153 A  
HETATM    8  N   UNL     1     -11.475  10.136  70.433  1.00  0.00    -0.299 NA 
HETATM    9  C   UNL     1     -11.608  11.311  69.731  1.00  0.00    -0.333 A  
HETATM   10  H   UNL     1     -11.713  10.014  71.417  1.00  0.00     0.000 HD 
HETATM   11  C   UNL     1     -12.060  12.566  70.151  1.00  0.00    -0.368 A  
HETATM   12  C   UNL     1     -12.092  13.596  69.204  1.00  0.00    -0.361 A  
HETATM   13  C   UNL     1     -11.693  13.385  67.879  1.00  0.00    -0.396 A  
HETATM   14  C   UNL     1     -11.221  12.117  67.495  1.00  0.00    -0.357 A  
HETATM   15  C   UNL     1     -11.184  11.059  68.428  1.00  0.00    -0.337 A  
BRANCH  13  16
HETATM   16  C   UNL     1     -11.757  14.512  66.874  1.00  0.00    -0.399 C  
BRANCH  16  17
HETATM   17  C   UNL     1     -12.580  14.166  65.633  1.00  0.00    -0.470 C  
HETATM   18  C   UNL     1     -12.057  14.754  64.337  1.00  0.00    -0.440 C  
HETATM   19  O   UNL     1     -12.516  13.833  63.336  1.00  0.00    -0.817 OA 
HETATM   20  C   UNL     1     -12.762  12.639  63.956  1.00  0.00    -0.269 C  
HETATM   21  N   UNL     1     -12.592  12.772  65.311  1.00  0.00    -0.635 NA 
HETATM   22  O   UNL     1     -13.122  11.620  63.395  1.00  0.00    -0.479 OA 
ENDBRANCH  16  17
ENDBRANCH  13  16
ENDBRANCH   5   6
ENDBRANCH   4   5
ENDBRANCH   2   4
TORSDOF 5
ENDMDL
MODEL       59
REMARK 921   NORMALIZED FREE ENERGY PREDICTED BY IDOCK:   -5.21 KCAL/MOL
REMARK 922        TOTAL FREE ENERGY PREDICTED BY IDOCK:   -7.17 KCAL/MOL
REMARK 923 INTER-LIGAND FREE ENERGY PREDICTED BY IDOCK:   -6.67 KCAL/MOL
REMARK 924 INTRA-LIGAND FREE ENERGY PREDICTED BY IDOCK:   -0.49 KCAL/MOL
REMARK 927      BINDING AFFINITY PREDICTED BY RF-SCORE:    0.00 PKD
ROOT
HETATM    1  C   UNL     1      -5.887  16.509  69.731  1.00  0.00    -0.196 C  
HETATM    2  N   UNL     1      -5.347  16.319  68.380  1.00  0.00    -0.101 NA 
HETATM    3  C   UNL     1      -6.224  15.425  67.624  1.00  0.00    -0.142 C  
ENDROOT
BRANCH   2   4
HETATM    4  C   UNL     1      -5.185  17.634  67.723  1.00  0.00    -0.131 C  
BRANCH   4   5
HETATM    5  C   UNL     1      -5.642  18.833  68.576  1.00  0.00    -0.193 C  
BRANCH   5   6
HETATM    6  C   UNL     1      -6.791  19.579  67.960  1.00  0.00    -0.287 A  
HETATM    7  C   UNL     1      -6.786  20.891  67.533  1.00  0.00    -0.365 A  
HETATM    8  N   UNL     1      -8.019  21.187  67.022  1.00  0.00    -0.655 NA 
HETATM    9  C   UNL     1      -8.842  20.089  67.101  1.00  0.00    -0.344 A  
HETATM   10  H   UNL     1      -8.289  22.092  66.637  1.00  0.00     0.000 HD 
HETATM   11  C   UNL     1     -10.170  19.925  66.692  1.00  0.00    -0.609 A  
HETATM   12  C   UNL     1     -10.766  18.677  66.904  1.00  0.00    -0.367 A  
HETATM   13  C   UNL     1     -10.067  17.624  67.507  1.00  0.00    -0.337 A  
HETATM   14  C   UNL     1      -8.726  17.814  67.884  1.00  0.00    -0.251 A  
HETATM   15  C   UNL     1      -8.102  19.065  67.689  1.00  0.00    -0.296 A  
BRANCH  13  16
HETATM   16  C   UNL     1     -10.744  16.292  67.739  1.00  0.00    -0.325 C  
BRANCH  16  17
HETATM   17  C   UNL     1     -11.224  15.629  66.449  1.00  0.00    -0.038 C  
HETATM   18  C   UNL     1     -10.184  14.774  65.748  1.00  0.00    -0.338 C  
HETATM   19  O   UNL     1     -10.968  13.805  65.035  1.00  0.00    -0.322 OA 
HETATM   20  C   UNL     1     -12.189  13.733  65.644  1.00  0.00    -0.454 C  
HETATM   21  N   UNL     1     -12.274  14.677  66.636  1.00  0.00    -0.234 NA 
HETATM   22  O   UNL     1     -13.087  12.975  65.324  1.00  0.00    -0.689 OA 
ENDBRANCH  16  17
ENDBRANCH  13  16
ENDBRANCH   5   6
ENDBRANCH   4   5
ENDBRANCH   2   4
TORSDOF 5
ENDMDL
MODEL       60
REMARK 921   NORMALIZED FREE ENERGY PREDICTED BY IDOCK:   -5.19 KCAL/MOL
REMARK 922        TOTAL FREE ENERGY PREDICTED BY IDOCK:   -7.15 KCAL/MOL
REMARK 923 INTER-LIGAND FREE ENERGY PREDICTED BY IDOCK:   -6.84 KCAL/MOL
REMARK 924 INTRA-LIGAND FREE ENERGY PREDICTED BY IDOCK:   -0.31 KCAL/MOL
REMARK 927      BINDING AFFINITY PREDICTED BY RF-SCORE:    0.00 PKD
ROOT
HETATM    1  C   UNL     1      -9.267   9.869  62.352  1.00  0.00    -0.284 C  
HETATM    2  N   UNL     1      -9.881  10.437  63.558  1.00  0.00    -0.276 NA 
HETATM    3  C   UNL     1      -9.236   9.876  64.746  1.00  0.00    -0.254 C  
ENDROOT
BRANCH   2   4
HETATM    4  C   UNL     1      -9.787  11.912  63.512  1.00  0.00    -0.336 C  
BRANCH   4   5
HETATM    5  C   UNL     1     -11.141  12.641  63.599  1.00  0.00    -0.496 C  
BRANCH   5   6
HETATM    6  C   UNL     1     -11.275  13.470  64.844  1.00  0.00    -0.353 A  
HETATM    7  C   UNL     1     -11.300  14.848  64.915  1.00  0.00    -0.413 A  
HETATM    8  N   UNL     1     -11.449  15.213  66.225  1.00  0.00    -0.225 NA 
HETATM    9  C   UNL     1     -11.526  14.096  67.023  1.00  0.00    -0.352 A  
HETATM   10  H   UNL     1     -11.495  16.175  66.560  1.00  0.00     0.000 HD 
HETATM   11  C   UNL     1     -11.691  13.987  68.408  1.00  0.00    -0.389 A  
HETATM   12  C   UNL     1     -11.733  12.701  68.959  1.00  0.00    -0.367 A  
HETATM   13  C   UNL     1     -11.609  11.558  68.160  1.00  0.00    -0.378 A  
HETATM   14  C   UNL     1     -11.468  11.702  66.768  1.00  0.00    -0.299 A  
HETATM   15  C   UNL     1     -11.416  12.987  66.187  1.00  0.00    -0.381 A  
BRANCH  13  16
HETATM   16  C   UNL     1     -11.639  10.182  68.786  1.00  0.00    -0.037 C  
BRANCH  16  17
HETATM   17  C   UNL     1     -11.729  10.218  70.311  1.00  0.00    -0.306 C  
HETATM   18  C   UNL     1     -13.140  10.264  70.864  1.00  0.00    -0.344 C  
HETATM   19  O   UNL     1     -13.018   9.652  72.158  1.00  0.00    -0.403 OA 
HETATM   20  C   UNL     1     -11.891   8.878  72.142  1.00  0.00    -0.347 C  
HETATM   21  N   UNL     1     -11.225   9.044  70.954  1.00  0.00    -0.270 NA 
HETATM   22  O   UNL     1     -11.509   8.179  73.063  1.00  0.00    -0.328 OA 
ENDBRANCH  16  17
ENDBRANCH  13  16
ENDBRANCH   5   6
ENDBRANCH   4   5
ENDBRANCH   2   4
TORSDOF 5
ENDMDL
MODEL       61
REMARK 921   NORMALIZED FREE ENERGY PREDICTED BY IDOCK:   -5.19 KCAL/MOL
REMARK 922        TOTAL FREE ENERGY PREDICTED BY IDOCK:   -7.15 KCAL/MOL
REMARK 923 INTER-LIGAND FREE ENERGY PREDICTED BY IDOCK:   -6.88 KCAL/MOL
REMARK 924 INTRA-LIGAND FREE ENERGY PREDICTED BY IDOCK:   -0.27 KCAL/MOL
REMARK 927      BINDING AFFINITY PREDICTED BY RF-SCORE:    0.00 PKD
ROOT
HETATM    1  C   UNL     1      -7.717   9.588  68.550  1.00  0.00    -0.081 C  
HETATM    2  N   UNL     1      -8.351   8.489  67.811  1.00  0.00    -0.128 NA 
HETATM    3  C   UNL     1      -9.100   7.643  68.741  1.00  0.00    -0.139 C  
ENDROOT
BRANCH   2   4
HETATM    4  C   UNL     1      -9.207   9.044  66.741  1.00  0.00    -0.157 C  
BRANCH   4   5
HETATM    5  C   UNL     1      -8.435   9.632  65.545  1.00  0.00    -0.151 C  
BRANCH   5   6
HETATM    6  C   UNL     1      -9.337  10.283  64.535  1.00  0.00    -0.328 A  
HETATM    7  C   UNL     1      -9.407   9.993  63.188  1.00  0.00    -0.260 A  
HETATM    8  N   UNL     1     -10.360  10.793  62.621  1.00  0.00    -0.759 NA 
HETATM    9  C   UNL     1     -10.925  11.608  63.573  1.00  0.00    -0.407 A  
HETATM   10  H   UNL     1     -10.614  10.787  61.633  1.00  0.00     0.000 HD 
HETATM   11  C   UNL     1     -11.937  12.567  63.455  1.00  0.00    -0.629 A  
HETATM   12  C   UNL     1     -12.316  13.259  64.612  1.00  0.00    -0.447 A  
HETATM   13  C   UNL     1     -11.705  13.010  65.847  1.00  0.00    -0.442 A  
HETATM   14  C   UNL     1     -10.708  12.022  65.936  1.00  0.00    -0.314 A  
HETATM   15  C   UNL     1     -10.302  11.314  64.784  1.00  0.00    -0.366 A  
BRANCH  13  16
HETATM   16  C   UNL     1     -12.122  13.786  67.075  1.00  0.00    -0.436 C  
BRANCH  16  17
HETATM   17  C   UNL     1     -11.275  15.035  67.313  1.00  0.00    -0.338 C  
HETATM   18  C   UNL     1     -10.086  14.833  68.233  1.00  0.00    -0.221 C  
HETATM   19  O   UNL     1      -9.148  15.831  67.801  1.00  0.00    -0.187 OA 
HETATM   20  C   UNL     1      -9.472  16.173  66.517  1.00  0.00    -0.264 C  
HETATM   21  N   UNL     1     -10.626  15.533  66.140  1.00  0.00    -0.307 NA 
HETATM   22  O   UNL     1      -8.854  16.962  65.826  1.00  0.00    -0.522 OA 
ENDBRANCH  16  17
ENDBRANCH  13  16
ENDBRANCH   5   6
ENDBRANCH   4   5
ENDBRANCH   2   4
TORSDOF 5
ENDMDL
MODEL       62
REMARK 921   NORMALIZED FREE ENERGY PREDICTED BY IDOCK:   -5.19 KCAL/MOL
REMARK 922        TOTAL FREE ENERGY PREDICTED BY IDOCK:   -7.15 KCAL/MOL
REMARK 923 INTER-LIGAND FREE ENERGY PREDICTED BY IDOCK:   -6.68 KCAL/MOL
REMARK 924 INTRA-LIGAND FREE ENERGY PREDICTED BY IDOCK:   -0.46 KCAL/MOL
REMARK 927      BINDING AFFINITY PREDICTED BY RF-SCORE:    0.00 PKD
ROOT
HETATM    1  C   UNL     1      -7.399  12.657  67.469  1.00  0.00    -0.151 C  
HETATM    2  N   UNL     1      -8.458  12.043  66.659  1.00  0.00    -0.157 NA 
HETATM    3  C   UNL     1      -7.944  10.831  66.019  1.00  0.00    -0.154 C  
ENDROOT
BRANCH   2   4
HETATM    4  C   UNL     1      -9.636  11.772  67.510  1.00  0.00    -0.177 C  
BRANCH   4   5
HETATM    5  C   UNL     1     -10.888  12.592  67.147  1.00  0.00    -0.282 C  
BRANCH   5   6
HETATM    6  C   UNL     1     -11.492  13.285  68.335  1.00  0.00    -0.349 A  
HETATM    7  C   UNL     1     -11.671  14.644  68.491  1.00  0.00    -0.316 A  
HETATM    8  N   UNL     1     -12.265  14.869  69.702  1.00  0.00    -0.472 NA 
HETATM    9  C   UNL     1     -12.486  13.677  70.351  1.00  0.00    -0.294 A  
HETATM   10  H   UNL     1     -12.509  15.788  70.070  1.00  0.00     0.000 HD 
HETATM   11  C   UNL     1     -13.074  13.422  71.595  1.00  0.00    -0.463 A  
HETATM   12  C   UNL     1     -13.165  12.088  72.010  1.00  0.00    -0.481 A  
HETATM   13  C   UNL     1     -12.682  11.040  71.217  1.00  0.00    -0.537 A  
HETATM   14  C   UNL     1     -12.118  11.329  69.962  1.00  0.00    -0.425 A  
HETATM   15  C   UNL     1     -12.008  12.665  69.521  1.00  0.00    -0.332 A  
BRANCH  13  16
HETATM   16  C   UNL     1     -12.777   9.611  71.701  1.00  0.00    -0.499 C  
BRANCH  16  17
HETATM   17  C   UNL     1     -11.635   8.729  71.199  1.00  0.00    -0.289 C  
HETATM   18  C   UNL     1     -10.538   8.469  72.214  1.00  0.00    -0.338 C  
HETATM   19  O   UNL     1      -9.996   7.202  71.810  1.00  0.00    -0.176 OA 
HETATM   20  C   UNL     1     -10.949   6.564  71.066  1.00  0.00    -0.265 C  
HETATM   21  N   UNL     1     -12.026   7.392  70.877  1.00  0.00    -0.299 NA 
HETATM   22  O   UNL     1     -10.840   5.444  70.601  1.00  0.00    -0.228 OA 
ENDBRANCH  16  17
ENDBRANCH  13  16
ENDBRANCH   5   6
ENDBRANCH   4   5
ENDBRANCH   2   4
TORSDOF 5
ENDMDL
MODEL       63
REMARK 921   NORMALIZED FREE ENERGY PREDICTED BY IDOCK:   -5.19 KCAL/MOL
REMARK 922        TOTAL FREE ENERGY PREDICTED BY IDOCK:   -7.15 KCAL/MOL
REMARK 923 INTER-LIGAND FREE ENERGY PREDICTED BY IDOCK:   -6.99 KCAL/MOL
REMARK 924 INTRA-LIGAND FREE ENERGY PREDICTED BY IDOCK:   -0.16 KCAL/MOL
REMARK 927      BINDING AFFINITY PREDICTED BY RF-SCORE:    0.00 PKD
ROOT
HETATM    1  C   UNL     1     -12.608  16.277  73.856  1.00  0.00    -0.529 C  
HETATM    2  N   UNL     1     -12.699  15.305  72.760  1.00  0.00    -0.361 NA 
HETATM    3  C   UNL     1     -14.080  15.237  72.281  1.00  0.00    -0.554 C  
ENDROOT
BRANCH   2   4
HETATM    4  C   UNL     1     -11.750  15.680  71.689  1.00  0.00    -0.446 C  
BRANCH   4   5
HETATM    5  C   UNL     1     -12.362  15.705  70.276  1.00  0.00    -0.402 C  
BRANCH   5   6
HETATM    6  C   UNL     1     -11.335  15.933  69.203  1.00  0.00    -0.366 A  
HETATM    7  C   UNL     1     -10.537  17.049  69.053  1.00  0.00    -0.314 A  
HETATM    8  N   UNL     1      -9.728  16.862  67.966  1.00  0.00    -0.250 NA 
HETATM    9  C   UNL     1      -9.976  15.636  67.395  1.00  0.00    -0.232 A  
HETATM   10  H   UNL     1      -9.041  17.534  67.628  1.00  0.00     0.000 HD 
HETATM   11  C   UNL     1      -9.386  15.021  66.286  1.00  0.00    -0.341 A  
HETATM   12  C   UNL     1      -9.847  13.750  65.924  1.00  0.00    -0.279 A  
HETATM   13  C   UNL     1     -10.868  13.111  66.638  1.00  0.00    -0.292 A  
HETATM   14  C   UNL     1     -11.425  13.747  67.763  1.00  0.00    -0.354 A  
HETATM   15  C   UNL     1     -10.982  15.031  68.146  1.00  0.00    -0.281 A  
BRANCH  13  16
HETATM   16  C   UNL     1     -11.359  11.746  66.212  1.00  0.00    -0.350 C  
BRANCH  16  17
HETATM   17  C   UNL     1     -11.117  10.665  67.264  1.00  0.00    -0.243 C  
HETATM   18  C   UNL     1      -9.689  10.578  67.770  1.00  0.00    -0.160 C  
HETATM   19  O   UNL     1      -9.831  10.042  69.095  1.00  0.00    -0.182 OA 
HETATM   20  C   UNL     1     -11.108  10.301  69.510  1.00  0.00    -0.262 C  
HETATM   21  N   UNL     1     -11.825  10.872  68.489  1.00  0.00    -0.503 NA 
HETATM   22  O   UNL     1     -11.556  10.024  70.608  1.00  0.00    -0.289 OA 
ENDBRANCH  16  17
ENDBRANCH  13  16
ENDBRANCH   5   6
ENDBRANCH   4   5
ENDBRANCH   2   4
TORSDOF 5
ENDMDL
MODEL       64
REMARK 921   NORMALIZED FREE ENERGY PREDICTED BY IDOCK:   -5.18 KCAL/MOL
REMARK 922        TOTAL FREE ENERGY PREDICTED BY IDOCK:   -7.13 KCAL/MOL
REMARK 923 INTER-LIGAND FREE ENERGY PREDICTED BY IDOCK:   -6.52 KCAL/MOL
REMARK 924 INTRA-LIGAND FREE ENERGY PREDICTED BY IDOCK:   -0.61 KCAL/MOL
REMARK 927      BINDING AFFINITY PREDICTED BY RF-SCORE:    0.00 PKD
ROOT
HETATM    1  C   UNL     1     -10.377  15.014  65.339  1.00  0.00    -0.383 C  
HETATM    2  N   UNL     1     -11.207  14.026  66.039  1.00  0.00    -0.306 NA 
HETATM    3  C   UNL     1     -10.358  12.949  66.550  1.00  0.00    -0.264 C  
ENDROOT
BRANCH   2   4
HETATM    4  C   UNL     1     -11.971  14.696  67.112  1.00  0.00    -0.283 C  
BRANCH   4   5
HETATM    5  C   UNL     1     -11.165  14.966  68.397  1.00  0.00    -0.304 C  
BRANCH   5   6
HETATM    6  C   UNL     1     -11.958  14.704  69.646  1.00  0.00    -0.368 A  
HETATM    7  C   UNL     1     -12.576  15.647  70.440  1.00  0.00    -0.336 A  
HETATM    8  N   UNL     1     -13.204  15.003  71.471  1.00  0.00    -0.368 NA 
HETATM    9  C   UNL     1     -13.013  13.645  71.369  1.00  0.00    -0.347 A  
HETATM   10  H   UNL     1     -13.736  15.464  72.208  1.00  0.00     0.000 HD 
HETATM   11  C   UNL     1     -13.476  12.606  72.182  1.00  0.00    -0.561 A  
HETATM   12  C   UNL     1     -13.118  11.298  71.834  1.00  0.00    -0.510 A  
HETATM   13  C   UNL     1     -12.320  11.031  70.715  1.00  0.00    -0.496 A  
HETATM   14  C   UNL     1     -11.891  12.097  69.905  1.00  0.00    -0.392 A  
HETATM   15  C   UNL     1     -12.232  13.426  70.236  1.00  0.00    -0.405 A  
BRANCH  13  16
HETATM   16  C   UNL     1     -11.933   9.610  70.375  1.00  0.00    -0.171 C  
BRANCH  16  17
HETATM   17  C   UNL     1     -10.574   9.506  69.684  1.00  0.00    -0.228 C  
HETATM   18  C   UNL     1      -9.671   8.409  70.217  1.00  0.00    -0.172 C  
HETATM   19  O   UNL     1      -8.841   8.077  69.093  1.00  0.00    -0.143 OA 
HETATM   20  C   UNL     1      -9.498   8.478  67.963  1.00  0.00    -0.140 C  
HETATM   21  N   UNL     1     -10.647   9.146  68.302  1.00  0.00    -0.202 NA 
HETATM   22  O   UNL     1      -9.099   8.308  66.825  1.00  0.00    -0.140 OA 
ENDBRANCH  16  17
ENDBRANCH  13  16
ENDBRANCH   5   6
ENDBRANCH   4   5
ENDBRANCH   2   4
TORSDOF 5
ENDMDL
MODEL       65
REMARK 921   NORMALIZED FREE ENERGY PREDICTED BY IDOCK:   -5.15 KCAL/MOL
REMARK 922        TOTAL FREE ENERGY PREDICTED BY IDOCK:   -7.10 KCAL/MOL
REMARK 923 INTER-LIGAND FREE ENERGY PREDICTED BY IDOCK:   -6.90 KCAL/MOL
REMARK 924 INTRA-LIGAND FREE ENERGY PREDICTED BY IDOCK:   -0.20 KCAL/MOL
REMARK 927      BINDING AFFINITY PREDICTED BY RF-SCORE:    0.00 PKD
ROOT
HETATM    1  C   UNL     1     -12.014  15.884  72.102  1.00  0.00    -0.518 C  
HETATM    2  N   UNL     1     -12.335  14.495  71.756  1.00  0.00    -0.343 NA 
HETATM    3  C   UNL     1     -13.440  14.025  72.592  1.00  0.00    -0.547 C  
ENDROOT
BRANCH   2   4
HETATM    4  C   UNL     1     -12.646  14.405  70.313  1.00  0.00    -0.323 C  
BRANCH   4   5
HETATM    5  C   UNL     1     -11.896  13.286  69.566  1.00  0.00    -0.388 C  
BRANCH   5   6
HETATM    6  C   UNL     1     -11.508  13.678  68.169  1.00  0.00    -0.348 A  
HETATM    7  C   UNL     1     -12.082  13.226  66.999  1.00  0.00    -0.320 A  
HETATM    8  N   UNL     1     -11.455  13.832  65.945  1.00  0.00    -0.315 NA 
HETATM    9  C   UNL     1     -10.475  14.682  66.400  1.00  0.00    -0.295 A  
HETATM   10  H   UNL     1     -11.682  13.675  64.964  1.00  0.00     0.000 HD 
HETATM   11  C   UNL     1      -9.599  15.511  65.691  1.00  0.00    -0.328 A  
HETATM   12  C   UNL     1      -8.689  16.278  66.428  1.00  0.00    -0.354 A  
HETATM   13  C   UNL     1      -8.646  16.219  67.826  1.00  0.00    -0.175 A  
HETATM   14  C   UNL     1      -9.557  15.394  68.510  1.00  0.00    -0.201 A  
HETATM   15  C   UNL     1     -10.481  14.605  67.791  1.00  0.00    -0.246 A  
BRANCH  13  16
HETATM   16  C   UNL     1      -7.639  17.045  68.595  1.00  0.00    -0.238 C  
BRANCH  16  17
HETATM   17  C   UNL     1      -7.966  18.538  68.600  1.00  0.00    -0.309 C  
HETATM   18  C   UNL     1      -6.986  19.407  67.835  1.00  0.00    -0.246 C  
HETATM   19  O   UNL     1      -7.778  20.535  67.429  1.00  0.00    -0.319 OA 
HETATM   20  C   UNL     1      -9.088  20.145  67.446  1.00  0.00    -0.364 C  
HETATM   21  N   UNL     1      -9.191  18.871  67.942  1.00  0.00    -0.296 NA 
HETATM   22  O   UNL     1     -10.029  20.842  67.111  1.00  0.00    -0.422 OA 
ENDBRANCH  16  17
ENDBRANCH  13  16
ENDBRANCH   5   6
ENDBRANCH   4   5
ENDBRANCH   2   4
TORSDOF 5
ENDMDL
MODEL       66
REMARK 921   NORMALIZED FREE ENERGY PREDICTED BY IDOCK:   -5.15 KCAL/MOL
REMARK 922        TOTAL FREE ENERGY PREDICTED BY IDOCK:   -7.10 KCAL/MOL
REMARK 923 INTER-LIGAND FREE ENERGY PREDICTED BY IDOCK:   -6.65 KCAL/MOL
REMARK 924 INTRA-LIGAND FREE ENERGY PREDICTED BY IDOCK:   -0.45 KCAL/MOL
REMARK 927      BINDING AFFINITY PREDICTED BY RF-SCORE:    0.00 PKD
ROOT
HETATM    1  C   UNL     1     -12.087  14.664  71.686  1.00  0.00    -0.335 C  
HETATM    2  N   UNL     1     -13.289  14.387  72.482  1.00  0.00    -0.448 NA 
HETATM    3  C   UNL     1     -14.380  15.255  72.038  1.00  0.00    -0.589 C  
ENDROOT
BRANCH   2   4
HETATM    4  C   UNL     1     -13.633  12.953  72.372  1.00  0.00    -0.478 C  
BRANCH   4   5
HETATM    5  C   UNL     1     -12.813  12.178  71.323  1.00  0.00    -0.349 C  
BRANCH   5   6
HETATM    6  C   UNL     1     -12.813  10.696  71.565  1.00  0.00    -0.567 A  
HETATM    7  C   UNL     1     -13.628  10.005  72.439  1.00  0.00    -0.083 A  
HETATM    8  N   UNL     1     -13.326   8.674  72.355  1.00  0.00    -0.563 NA 
HETATM    9  C   UNL     1     -12.324   8.471  71.435  1.00  0.00    -0.297 A  
HETATM   10  H   UNL     1     -13.779   7.939  72.896  1.00  0.00     0.000 HD 
HETATM   11  C   UNL     1     -11.711   7.286  71.016  1.00  0.00    -0.340 A  
HETATM   12  C   UNL     1     -10.701   7.382  70.052  1.00  0.00    -0.258 A  
HETATM   13  C   UNL     1     -10.308   8.618  69.524  1.00  0.00    -0.214 A  
HETATM   14  C   UNL     1     -10.961   9.788  69.950  1.00  0.00    -0.299 A  
HETATM   15  C   UNL     1     -11.979   9.721  70.925  1.00  0.00    -0.413 A  
BRANCH  13  16
HETATM   16  C   UNL     1      -9.200   8.692  68.498  1.00  0.00    -0.138 C  
BRANCH  16  17
HETATM   17  C   UNL     1      -9.311   9.909  67.581  1.00  0.00    -0.140 C  
HETATM   18  C   UNL     1      -8.019  10.310  66.894  1.00  0.00    -0.112 C  
HETATM   19  O   UNL     1      -8.461  10.954  65.689  1.00  0.00    -0.175 OA 
HETATM   20  C   UNL     1      -9.729  10.516  65.428  1.00  0.00    -0.257 C  
HETATM   21  N   UNL     1     -10.167   9.714  66.451  1.00  0.00    -0.240 NA 
HETATM   22  O   UNL     1     -10.389  10.826  64.453  1.00  0.00    -0.353 OA 
ENDBRANCH  16  17
ENDBRANCH  13  16
ENDBRANCH   5   6
ENDBRANCH   4   5
ENDBRANCH   2   4
TORSDOF 5
ENDMDL
MODEL       67
REMARK 921   NORMALIZED FREE ENERGY PREDICTED BY IDOCK:   -5.15 KCAL/MOL
REMARK 922        TOTAL FREE ENERGY PREDICTED BY IDOCK:   -7.10 KCAL/MOL
REMARK 923 INTER-LIGAND FREE ENERGY PREDICTED BY IDOCK:   -6.68 KCAL/MOL
REMARK 924 INTRA-LIGAND FREE ENERGY PREDICTED BY IDOCK:   -0.42 KCAL/MOL
REMARK 927      BINDING AFFINITY PREDICTED BY RF-SCORE:    0.00 PKD
ROOT
HETATM    1  C   UNL     1     -12.541  11.969  63.484  1.00  0.00    -0.507 C  
HETATM    2  N   UNL     1     -11.247  11.998  64.176  1.00  0.00    -0.347 NA 
HETATM    3  C   UNL     1     -10.212  11.450  63.298  1.00  0.00    -0.385 C  
ENDROOT
BRANCH   2   4
HETATM    4  C   UNL     1     -10.947  13.381  64.603  1.00  0.00    -0.377 C  
BRANCH   4   5
HETATM    5  C   UNL     1     -10.075  13.484  65.868  1.00  0.00    -0.311 C  
BRANCH   5   6
HETATM    6  C   UNL     1     -10.762  14.207  66.990  1.00  0.00    -0.285 A  
HETATM    7  C   UNL     1     -10.997  15.564  67.072  1.00  0.00    -0.283 A  
HETATM    8  N   UNL     1     -11.659  15.822  68.240  1.00  0.00    -0.342 NA 
HETATM    9  C   UNL     1     -11.870  14.654  68.934  1.00  0.00    -0.309 A  
HETATM   10  H   UNL     1     -11.953  16.747  68.552  1.00  0.00     0.000 HD 
HETATM   11  C   UNL     1     -12.511  14.434  70.158  1.00  0.00    -0.395 A  
HETATM   12  C   UNL     1     -12.576  13.119  70.632  1.00  0.00    -0.286 A  
HETATM   13  C   UNL     1     -12.017  12.054  69.914  1.00  0.00    -0.391 A  
HETATM   14  C   UNL     1     -11.401  12.306  68.676  1.00  0.00    -0.339 A  
HETATM   15  C   UNL     1     -11.315  13.623  68.177  1.00  0.00    -0.321 A  
BRANCH  13  16
HETATM   16  C   UNL     1     -12.087  10.646  70.461  1.00  0.00    -0.448 C  
BRANCH  16  17
HETATM   17  C   UNL     1     -10.722   9.962  70.533  1.00  0.00    -0.317 C  
HETATM   18  C   UNL     1     -10.544   9.021  71.710  1.00  0.00    -0.356 C  
HETATM   19  O   UNL     1      -9.573   8.072  71.241  1.00  0.00    -0.152 OA 
HETATM   20  C   UNL     1      -9.601   8.095  69.874  1.00  0.00    -0.175 C  
HETATM   21  N   UNL     1     -10.451   9.080  69.440  1.00  0.00    -0.220 NA 
HETATM   22  O   UNL     1      -8.935   7.379  69.149  1.00  0.00    -0.136 OA 
ENDBRANCH  16  17
ENDBRANCH  13  16
ENDBRANCH   5   6
ENDBRANCH   4   5
ENDBRANCH   2   4
TORSDOF 5
ENDMDL
MODEL       68
REMARK 921   NORMALIZED FREE ENERGY PREDICTED BY IDOCK:   -5.15 KCAL/MOL
REMARK 922        TOTAL FREE ENERGY PREDICTED BY IDOCK:   -7.09 KCAL/MOL
REMARK 923 INTER-LIGAND FREE ENERGY PREDICTED BY IDOCK:   -6.68 KCAL/MOL
REMARK 924 INTRA-LIGAND FREE ENERGY PREDICTED BY IDOCK:   -0.42 KCAL/MOL
REMARK 927      BINDING AFFINITY PREDICTED BY RF-SCORE:    0.00 PKD
ROOT
HETATM    1  C   UNL     1     -10.926   8.777  71.886  1.00  0.00    -0.365 C  
HETATM    2  N   UNL     1     -10.268   7.637  71.239  1.00  0.00    -0.188 NA 
HETATM    3  C   UNL     1     -11.074   6.431  71.434  1.00  0.00    -0.277 C  
ENDROOT
BRANCH   2   4
HETATM    4  C   UNL     1     -10.049   7.940  69.808  1.00  0.00    -0.199 C  
BRANCH   4   5
HETATM    5  C   UNL     1     -10.746   9.221  69.313  1.00  0.00    -0.211 C  
BRANCH   5   6
HETATM    6  C   UNL     1     -10.520   9.477  67.850  1.00  0.00    -0.293 A  
HETATM    7  C   UNL     1     -10.020   8.582  66.927  1.00  0.00    -0.265 A  
HETATM    8  N   UNL     1      -9.982   9.194  65.705  1.00  0.00    -0.425 NA 
HETATM    9  C   UNL     1     -10.452  10.483  65.804  1.00  0.00    -0.143 A  
HETATM   10  H   UNL     1      -9.652   8.758  64.844  1.00  0.00     0.000 HD 
HETATM   11  C   UNL     1     -10.606  11.465  64.820  1.00  0.00    -0.377 A  
HETATM   12  C   UNL     1     -11.114  12.708  65.216  1.00  0.00    -0.330 A  
HETATM   13  C   UNL     1     -11.454  12.969  66.548  1.00  0.00    -0.385 A  
HETATM   14  C   UNL     1     -11.310  11.952  67.509  1.00  0.00    -0.381 A  
HETATM   15  C   UNL     1     -10.794  10.691  67.138  1.00  0.00    -0.328 A  
BRANCH  13  16
HETATM   16  C   UNL     1     -11.983  14.327  66.949  1.00  0.00    -0.467 C  
BRANCH  16  17
HETATM   17  C   UNL     1     -11.207  14.958  68.105  1.00  0.00    -0.299 C  
HETATM   18  C   UNL     1     -10.859  16.422  67.914  1.00  0.00    -0.328 C  
HETATM   19  O   UNL     1     -10.767  16.926  69.256  1.00  0.00    -0.335 OA 
HETATM   20  C   UNL     1     -11.480  16.083  70.063  1.00  0.00    -0.331 C  
HETATM   21  N   UNL     1     -11.931  15.011  69.336  1.00  0.00    -0.312 NA 
HETATM   22  O   UNL     1     -11.652  16.238  71.258  1.00  0.00    -0.437 OA 
ENDBRANCH  16  17
ENDBRANCH  13  16
ENDBRANCH   5   6
ENDBRANCH   4   5
ENDBRANCH   2   4
TORSDOF 5
ENDMDL
MODEL       69
REMARK 921   NORMALIZED FREE ENERGY PREDICTED BY IDOCK:   -5.10 KCAL/MOL
REMARK 922        TOTAL FREE ENERGY PREDICTED BY IDOCK:   -7.03 KCAL/MOL
REMARK 923 INTER-LIGAND FREE ENERGY PREDICTED BY IDOCK:   -6.52 KCAL/MOL
REMARK 924 INTRA-LIGAND FREE ENERGY PREDICTED BY IDOCK:   -0.51 KCAL/MOL
REMARK 927      BINDING AFFINITY PREDICTED BY RF-SCORE:    0.00 PKD
ROOT
HETATM    1  C   UNL     1      -8.704   7.857  70.307  1.00  0.00    -0.138 C  
HETATM    2  N   UNL     1      -9.936   8.113  69.553  1.00  0.00    -0.183 NA 
HETATM    3  C   UNL     1     -11.077   8.123  70.470  1.00  0.00    -0.253 C  
ENDROOT
BRANCH   2   4
HETATM    4  C   UNL     1      -9.804   9.384  68.809  1.00  0.00    -0.163 C  
BRANCH   4   5
HETATM    5  C   UNL     1     -10.866   9.596  67.714  1.00  0.00    -0.278 C  
BRANCH   5   6
HETATM    6  C   UNL     1     -10.476  10.655  66.723  1.00  0.00    -0.303 A  
HETATM    7  C   UNL     1      -9.807  10.460  65.532  1.00  0.00    -0.269 A  
HETATM    8  N   UNL     1      -9.656  11.672  64.915  1.00  0.00    -0.370 NA 
HETATM    9  C   UNL     1     -10.217  12.667  65.680  1.00  0.00    -0.273 A  
HETATM   10  H   UNL     1      -9.193  11.815  64.018  1.00  0.00     0.000 HD 
HETATM   11  C   UNL     1     -10.309  14.043  65.443  1.00  0.00    -0.377 A  
HETATM   12  C   UNL     1     -10.943  14.829  66.413  1.00  0.00    -0.331 A  
HETATM   13  C   UNL     1     -11.463  14.267  67.585  1.00  0.00    -0.370 A  
HETATM   14  C   UNL     1     -11.375  12.877  67.781  1.00  0.00    -0.343 A  
HETATM   15  C   UNL     1     -10.736  12.062  66.822  1.00  0.00    -0.280 A  
BRANCH  13  16
HETATM   16  C   UNL     1     -12.126  15.144  68.623  1.00  0.00    -0.184 C  
BRANCH  16  17
HETATM   17  C   UNL     1     -11.979  14.606  70.046  1.00  0.00    -0.320 C  
HETATM   18  C   UNL     1     -11.323  15.562  71.024  1.00  0.00    -0.376 C  
HETATM   19  O   UNL     1     -11.865  15.172  72.295  1.00  0.00    -0.377 OA 
HETATM   20  C   UNL     1     -13.036  14.508  72.057  1.00  0.00    -0.344 C  
HETATM   21  N   UNL     1     -13.221  14.354  70.707  1.00  0.00    -0.308 NA 
HETATM   22  O   UNL     1     -13.783  14.078  72.918  1.00  0.00    -0.677 OA 
ENDBRANCH  16  17
ENDBRANCH  13  16
ENDBRANCH   5   6
ENDBRANCH   4   5
ENDBRANCH   2   4
TORSDOF 5
ENDMDL
MODEL       70
REMARK 921   NORMALIZED FREE ENERGY PREDICTED BY IDOCK:   -5.09 KCAL/MOL
REMARK 922        TOTAL FREE ENERGY PREDICTED BY IDOCK:   -7.01 KCAL/MOL
REMARK 923 INTER-LIGAND FREE ENERGY PREDICTED BY IDOCK:   -6.70 KCAL/MOL
REMARK 924 INTRA-LIGAND FREE ENERGY PREDICTED BY IDOCK:   -0.31 KCAL/MOL
REMARK 927      BINDING AFFINITY PREDICTED BY RF-SCORE:    0.00 PKD
ROOT
HETATM    1  C   UNL     1      -6.787  10.104  66.023  1.00  0.00    -0.112 C  
HETATM    2  N   UNL     1      -7.092  10.281  64.598  1.00  0.00    -0.118 NA 
HETATM    3  C   UNL     1      -5.937   9.871  63.797  1.00  0.00    -0.121 C  
ENDROOT
BRANCH   2   4
HETATM    4  C   UNL     1      -8.311   9.517  64.257  1.00  0.00    -0.170 C  
BRANCH   4   5
HETATM    5  C   UNL     1      -9.562   9.920  65.059  1.00  0.00    -0.364 C  
BRANCH   5   6
HETATM    6  C   UNL     1     -10.239  11.142  64.505  1.00  0.00    -0.383 A  
HETATM    7  C   UNL     1     -10.361  11.481  63.174  1.00  0.00    -0.324 A  
HETATM    8  N   UNL     1     -11.054  12.656  63.086  1.00  0.00    -0.699 NA 
HETATM    9  C   UNL     1     -11.397  13.100  64.341  1.00  0.00    -0.363 A  
HETATM   10  H   UNL     1     -11.284  13.134  62.215  1.00  0.00     0.000 HD 
HETATM   11  C   UNL     1     -12.112  14.237  64.732  1.00  0.00    -0.457 A  
HETATM   12  C   UNL     1     -12.311  14.441  66.103  1.00  0.00    -0.335 A  
HETATM   13  C   UNL     1     -11.810  13.546  67.056  1.00  0.00    -0.447 A  
HETATM   14  C   UNL     1     -11.117  12.401  66.629  1.00  0.00    -0.336 A  
HETATM   15  C   UNL     1     -10.896  12.173  65.253  1.00  0.00    -0.336 A  
BRANCH  13  16
HETATM   16  C   UNL     1     -12.025  13.803  68.531  1.00  0.00    -0.402 C  
BRANCH  16  17
HETATM   17  C   UNL     1     -11.094  14.876  69.096  1.00  0.00    -0.269 C  
HETATM   18  C   UNL     1      -9.691  14.869  68.518  1.00  0.00    -0.215 C  
HETATM   19  O   UNL     1      -9.262  16.233  68.655  1.00  0.00    -0.208 OA 
HETATM   20  C   UNL     1     -10.382  17.009  68.756  1.00  0.00    -0.336 C  
HETATM   21  N   UNL     1     -11.500  16.215  68.803  1.00  0.00    -0.364 NA 
HETATM   22  O   UNL     1     -10.386  18.224  68.839  1.00  0.00    -0.345 OA 
ENDBRANCH  16  17
ENDBRANCH  13  16
ENDBRANCH   5   6
ENDBRANCH   4   5
ENDBRANCH   2   4
TORSDOF 5
ENDMDL
MODEL       71
REMARK 921   NORMALIZED FREE ENERGY PREDICTED BY IDOCK:   -5.08 KCAL/MOL
REMARK 922        TOTAL FREE ENERGY PREDICTED BY IDOCK:   -7.00 KCAL/MOL
REMARK 923 INTER-LIGAND FREE ENERGY PREDICTED BY IDOCK:   -6.51 KCAL/MOL
REMARK 924 INTRA-LIGAND FREE ENERGY PREDICTED BY IDOCK:   -0.49 KCAL/MOL
REMARK 927      BINDING AFFINITY PREDICTED BY RF-SCORE:    0.00 PKD
ROOT
HETATM    1  C   UNL     1      -9.762   8.934  71.388  1.00  0.00    -0.300 C  
HETATM    2  N   UNL     1     -10.976   8.110  71.404  1.00  0.00    -0.231 NA 
HETATM    3  C   UNL     1     -11.240   7.655  72.770  1.00  0.00    -0.377 C  
ENDROOT
BRANCH   2   4
HETATM    4  C   UNL     1     -12.104   8.884  70.843  1.00  0.00    -0.177 C  
BRANCH   4   5
HETATM    5  C   UNL     1     -11.699  10.214  70.181  1.00  0.00    -0.330 C  
BRANCH   5   6
HETATM    6  C   UNL     1     -12.352  11.405  70.822  1.00  0.00    -0.483 A  
HETATM    7  C   UNL     1     -13.141  11.399  71.954  1.00  0.00    -0.400 A  
HETATM    8  N   UNL     1     -13.530  12.683  72.220  1.00  0.00    -0.534 NA 
HETATM    9  C   UNL     1     -13.008  13.541  71.281  1.00  0.00    -0.304 A  
HETATM   10  H   UNL     1     -14.122  12.963  73.001  1.00  0.00     0.000 HD 
HETATM   11  C   UNL     1     -13.128  14.930  71.162  1.00  0.00    -0.459 A  
HETATM   12  C   UNL     1     -12.480  15.549  70.087  1.00  0.00    -0.351 A  
HETATM   13  C   UNL     1     -11.740  14.812  69.155  1.00  0.00    -0.344 A  
HETATM   14  C   UNL     1     -11.619  13.420  69.317  1.00  0.00    -0.365 A  
HETATM   15  C   UNL     1     -12.267  12.769  70.389  1.00  0.00    -0.371 A  
BRANCH  13  16
HETATM   16  C   UNL     1     -11.067  15.507  67.994  1.00  0.00    -0.322 C  
BRANCH  16  17
HETATM   17  C   UNL     1      -9.595  15.125  67.837  1.00  0.00    -0.203 C  
HETATM   18  C   UNL     1      -8.959  15.566  66.531  1.00  0.00    -0.312 C  
HETATM   19  O   UNL     1      -7.569  15.708  66.863  1.00  0.00    -0.216 OA 
HETATM   20  C   UNL     1      -7.483  15.881  68.216  1.00  0.00    -0.127 C  
HETATM   21  N   UNL     1      -8.725  15.749  68.784  1.00  0.00    -0.188 NA 
HETATM   22  O   UNL     1      -6.452  16.079  68.832  1.00  0.00    -0.116 OA 
ENDBRANCH  16  17
ENDBRANCH  13  16
ENDBRANCH   5   6
ENDBRANCH   4   5
ENDBRANCH   2   4
TORSDOF 5
ENDMDL
MODEL       72
REMARK 921   NORMALIZED FREE ENERGY PREDICTED BY IDOCK:   -5.07 KCAL/MOL
REMARK 922        TOTAL FREE ENERGY PREDICTED BY IDOCK:   -6.99 KCAL/MOL
REMARK 923 INTER-LIGAND FREE ENERGY PREDICTED BY IDOCK:   -6.64 KCAL/MOL
REMARK 924 INTRA-LIGAND FREE ENERGY PREDICTED BY IDOCK:   -0.35 KCAL/MOL
REMARK 927      BINDING AFFINITY PREDICTED BY RF-SCORE:    0.00 PKD
ROOT
HETATM    1  C   UNL     1      -8.709  19.877  67.491  1.00  0.00    -0.338 C  
HETATM    2  N   UNL     1      -9.833  18.939  67.591  1.00  0.00    -0.319 NA 
HETATM    3  C   UNL     1     -10.643  19.016  66.374  1.00  0.00    -0.409 C  
ENDROOT
BRANCH   2   4
HETATM    4  C   UNL     1      -9.318  17.576  67.837  1.00  0.00    -0.265 C  
BRANCH   4   5
HETATM    5  C   UNL     1     -10.409  16.498  67.983  1.00  0.00    -0.294 C  
BRANCH   5   6
HETATM    6  C   UNL     1     -10.230  15.358  67.020  1.00  0.00    -0.262 A  
HETATM    7  C   UNL     1      -9.640  15.419  65.775  1.00  0.00    -0.333 A  
HETATM    8  N   UNL     1      -9.661  14.168  65.222  1.00  0.00    -0.567 NA 
HETATM    9  C   UNL     1     -10.255  13.278  66.085  1.00  0.00    -0.296 A  
HETATM   10  H   UNL     1      -9.290  13.931  64.303  1.00  0.00     0.000 HD 
HETATM   11  C   UNL     1     -10.481  11.904  65.949  1.00  0.00    -0.296 A  
HETATM   12  C   UNL     1     -11.120  11.242  67.004  1.00  0.00    -0.356 A  
HETATM   13  C   UNL     1     -11.528  11.925  68.157  1.00  0.00    -0.384 A  
HETATM   14  C   UNL     1     -11.264  13.301  68.272  1.00  0.00    -0.309 A  
HETATM   15  C   UNL     1     -10.626  13.995  67.221  1.00  0.00    -0.273 A  
BRANCH  13  16
HETATM   16  C   UNL     1     -12.233  11.187  69.272  1.00  0.00    -0.295 C  
BRANCH  16  17
HETATM   17  C   UNL     1     -11.283  10.708  70.370  1.00  0.00    -0.252 C  
HETATM   18  C   UNL     1     -11.939   9.891  71.467  1.00  0.00    -0.390 C  
HETATM   19  O   UNL     1     -10.875   9.055  71.949  1.00  0.00    -0.350 OA 
HETATM   20  C   UNL     1      -9.934   8.974  70.961  1.00  0.00    -0.279 C  
HETATM   21  N   UNL     1     -10.279   9.796  69.918  1.00  0.00    -0.238 NA 
HETATM   22  O   UNL     1      -8.917   8.307  71.016  1.00  0.00    -0.139 OA 
ENDBRANCH  16  17
ENDBRANCH  13  16
ENDBRANCH   5   6
ENDBRANCH   4   5
ENDBRANCH   2   4
TORSDOF 5
ENDMDL
MODEL       73
REMARK 921   NORMALIZED FREE ENERGY PREDICTED BY IDOCK:   -5.07 KCAL/MOL
REMARK 922        TOTAL FREE ENERGY PREDICTED BY IDOCK:   -6.99 KCAL/MOL
REMARK 923 INTER-LIGAND FREE ENERGY PREDICTED BY IDOCK:   -6.89 KCAL/MOL
REMARK 924 INTRA-LIGAND FREE ENERGY PREDICTED BY IDOCK:   -0.10 KCAL/MOL
REMARK 927      BINDING AFFINITY PREDICTED BY RF-SCORE:    0.00 PKD
ROOT
HETATM    1  C   UNL     1      -7.995   6.100  66.920  1.00  0.00    -0.105 C  
HETATM    2  N   UNL     1      -9.423   6.271  66.631  1.00  0.00    -0.150 NA 
HETATM    3  C   UNL     1     -10.080   4.963  66.621  1.00  0.00    -0.249 C  
ENDROOT
BRANCH   2   4
HETATM    4  C   UNL     1     -10.021   7.192  67.622  1.00  0.00    -0.158 C  
BRANCH   4   5
HETATM    5  C   UNL     1     -10.417   8.568  67.056  1.00  0.00    -0.362 C  
BRANCH   5   6
HETATM    6  C   UNL     1     -10.590   9.608  68.126  1.00  0.00    -0.273 A  
HETATM    7  C   UNL     1     -10.252   9.480  69.458  1.00  0.00    -0.213 A  
HETATM    8  N   UNL     1     -10.553  10.651  70.097  1.00  0.00    -0.458 NA 
HETATM    9  C   UNL     1     -11.083  11.556  69.207  1.00  0.00    -0.246 A  
HETATM   10  H   UNL     1     -10.407  10.828  71.090  1.00  0.00     0.000 HD 
HETATM   11  C   UNL     1     -11.518  12.870  69.407  1.00  0.00    -0.323 A  
HETATM   12  C   UNL     1     -12.022  13.564  68.301  1.00  0.00    -0.377 A  
HETATM   13  C   UNL     1     -12.097  12.969  67.036  1.00  0.00    -0.330 A  
HETATM   14  C   UNL     1     -11.630  11.654  66.863  1.00  0.00    -0.246 A  
HETATM   15  C   UNL     1     -11.122  10.929  67.963  1.00  0.00    -0.351 A  
BRANCH  13  16
HETATM   16  C   UNL     1     -12.664  13.738  65.863  1.00  0.00    -0.452 C  
BRANCH  16  17
HETATM   17  C   UNL     1     -11.637  14.642  65.185  1.00  0.00    -0.371 C  
HETATM   18  C   UNL     1     -12.219  15.648  64.210  1.00  0.00    -0.002 C  
HETATM   19  O   UNL     1     -11.270  16.725  64.226  1.00  0.00    -1.163 OA 
HETATM   20  C   UNL     1     -10.570  16.640  65.397  1.00  0.00    -0.237 C  
HETATM   21  N   UNL     1     -10.939  15.510  66.081  1.00  0.00    -0.290 NA 
HETATM   22  O   UNL     1      -9.714  17.427  65.759  1.00  0.00    -0.533 OA 
ENDBRANCH  16  17
ENDBRANCH  13  16
ENDBRANCH   5   6
ENDBRANCH   4   5
ENDBRANCH   2   4
TORSDOF 5
ENDMDL
MODEL       74
REMARK 921   NORMALIZED FREE ENERGY PREDICTED BY IDOCK:   -5.07 KCAL/MOL
REMARK 922        TOTAL FREE ENERGY PREDICTED BY IDOCK:   -6.99 KCAL/MOL
REMARK 923 INTER-LIGAND FREE ENERGY PREDICTED BY IDOCK:   -6.74 KCAL/MOL
REMARK 924 INTRA-LIGAND FREE ENERGY PREDICTED BY IDOCK:   -0.25 KCAL/MOL
REMARK 927      BINDING AFFINITY PREDICTED BY RF-SCORE:    0.00 PKD
ROOT
HETATM    1  C   UNL     1     -10.134  19.870  68.603  1.00  0.00    -0.406 C  
HETATM    2  N   UNL     1      -9.363  19.452  67.427  1.00  0.00    -0.308 NA 
HETATM    3  C   UNL     1      -9.546  20.426  66.350  1.00  0.00    -0.252 C  
ENDROOT
BRANCH   2   4
HETATM    4  C   UNL     1      -7.941  19.291  67.801  1.00  0.00    -0.277 C  
BRANCH   4   5
HETATM    5  C   UNL     1      -7.581  17.899  68.354  1.00  0.00    -0.282 C  
BRANCH   5   6
HETATM    6  C   UNL     1      -8.244  16.784  67.597  1.00  0.00    -0.191 A  
HETATM    7  C   UNL     1      -7.752  16.142  66.479  1.00  0.00    -0.184 A  
HETATM    8  N   UNL     1      -8.646  15.179  66.101  1.00  0.00    -0.388 NA 
HETATM    9  C   UNL     1      -9.725  15.172  66.954  1.00  0.00    -0.239 A  
HETATM   10  H   UNL     1      -8.530  14.557  65.302  1.00  0.00     0.000 HD 
HETATM   11  C   UNL     1     -10.863  14.359  66.962  1.00  0.00    -0.297 A  
HETATM   12  C   UNL     1     -11.815  14.582  67.963  1.00  0.00    -0.350 A  
HETATM   13  C   UNL     1     -11.644  15.585  68.925  1.00  0.00    -0.384 A  
HETATM   14  C   UNL     1     -10.477  16.369  68.903  1.00  0.00    -0.285 A  
HETATM   15  C   UNL     1      -9.504  16.170  67.901  1.00  0.00    -0.214 A  
BRANCH  13  16
HETATM   16  C   UNL     1     -12.699  15.815  69.984  1.00  0.00     0.040 C  
BRANCH  16  17
HETATM   17  C   UNL     1     -12.570  14.866  71.176  1.00  0.00    -0.335 C  
HETATM   18  C   UNL     1     -13.575  15.101  72.287  1.00  0.00    -0.462 C  
HETATM   19  O   UNL     1     -13.708  13.809  72.902  1.00  0.00    -0.684 OA 
HETATM   20  C   UNL     1     -13.311  12.875  71.986  1.00  0.00    -0.482 C  
HETATM   21  N   UNL     1     -12.829  13.495  70.862  1.00  0.00    -0.266 NA 
HETATM   22  O   UNL     1     -13.340  11.669  72.160  1.00  0.00    -0.491 OA 
ENDBRANCH  16  17
ENDBRANCH  13  16
ENDBRANCH   5   6
ENDBRANCH   4   5
ENDBRANCH   2   4
TORSDOF 5
ENDMDL
MODEL       75
REMARK 921   NORMALIZED FREE ENERGY PREDICTED BY IDOCK:   -5.03 KCAL/MOL
REMARK 922        TOTAL FREE ENERGY PREDICTED BY IDOCK:   -6.94 KCAL/MOL
REMARK 923 INTER-LIGAND FREE ENERGY PREDICTED BY IDOCK:   -6.48 KCAL/MOL
REMARK 924 INTRA-LIGAND FREE ENERGY PREDICTED BY IDOCK:   -0.46 KCAL/MOL
REMARK 927      BINDING AFFINITY PREDICTED BY RF-SCORE:    0.00 PKD
ROOT
HETATM    1  C   UNL     1     -13.337  15.204  70.814  1.00  0.00    -0.341 C  
HETATM    2  N   UNL     1     -12.981  15.047  72.229  1.00  0.00    -0.325 NA 
HETATM    3  C   UNL     1     -13.842  15.902  73.048  1.00  0.00    -0.402 C  
ENDROOT
BRANCH   2   4
HETATM    4  C   UNL     1     -13.084  13.621  72.608  1.00  0.00    -0.352 C  
BRANCH   4   5
HETATM    5  C   UNL     1     -13.734  12.722  71.540  1.00  0.00     0.266 C  
BRANCH   5   6
HETATM    6  C   UNL     1     -12.863  11.562  71.149  1.00  0.00    -0.414 A  
HETATM    7  C   UNL     1     -12.601  10.439  71.906  1.00  0.00    -0.288 A  
HETATM    8  N   UNL     1     -11.777   9.615  71.191  1.00  0.00    -0.341 NA 
HETATM    9  C   UNL     1     -11.490  10.175  69.968  1.00  0.00    -0.277 A  
HETATM   10  H   UNL     1     -11.425   8.715  71.517  1.00  0.00     0.000 HD 
HETATM   11  C   UNL     1     -10.708   9.690  68.915  1.00  0.00    -0.230 A  
HETATM   12  C   UNL     1     -10.589  10.489  67.771  1.00  0.00    -0.285 A  
HETATM   13  C   UNL     1     -11.223  11.733  67.679  1.00  0.00    -0.345 A  
HETATM   14  C   UNL     1     -12.022  12.181  68.746  1.00  0.00    -0.292 A  
HETATM   15  C   UNL     1     -12.154  11.399  69.914  1.00  0.00    -0.404 A  
BRANCH  13  16
HETATM   16  C   UNL     1     -11.061  12.583  66.438  1.00  0.00    -0.332 C  
BRANCH  16  17
HETATM   17  C   UNL     1     -11.168  14.081  66.718  1.00  0.00    -0.315 C  
HETATM   18  C   UNL     1      -9.997  14.672  67.481  1.00  0.00    -0.223 C  
HETATM   19  O   UNL     1      -9.978  16.045  67.062  1.00  0.00    -0.246 OA 
HETATM   20  C   UNL     1     -10.631  16.120  65.864  1.00  0.00    -0.312 C  
HETATM   21  N   UNL     1     -11.163  14.897  65.543  1.00  0.00    -0.342 NA 
HETATM   22  O   UNL     1     -10.761  17.133  65.200  1.00  0.00    -0.680 OA 
ENDBRANCH  16  17
ENDBRANCH  13  16
ENDBRANCH   5   6
ENDBRANCH   4   5
ENDBRANCH   2   4
TORSDOF 5
ENDMDL
MODEL       76
REMARK 921   NORMALIZED FREE ENERGY PREDICTED BY IDOCK:   -5.02 KCAL/MOL
REMARK 922        TOTAL FREE ENERGY PREDICTED BY IDOCK:   -6.92 KCAL/MOL
REMARK 923 INTER-LIGAND FREE ENERGY PREDICTED BY IDOCK:   -6.66 KCAL/MOL
REMARK 924 INTRA-LIGAND FREE ENERGY PREDICTED BY IDOCK:   -0.27 KCAL/MOL
REMARK 927      BINDING AFFINITY PREDICTED BY RF-SCORE:    0.00 PKD
ROOT
HETATM    1  C   UNL     1      -7.835   5.861  68.324  1.00  0.00    -0.105 C  
HETATM    2  N   UNL     1      -8.915   5.869  69.317  1.00  0.00    -0.117 NA 
HETATM    3  C   UNL     1      -9.573   4.561  69.334  1.00  0.00    -0.194 C  
ENDROOT
BRANCH   2   4
HETATM    4  C   UNL     1      -8.366   6.238  70.639  1.00  0.00    -0.133 C  
BRANCH   4   5
HETATM    5  C   UNL     1      -8.690   7.677  71.085  1.00  0.00    -0.138 C  
BRANCH   5   6
HETATM    6  C   UNL     1     -10.080   7.814  71.637  1.00  0.00    -0.224 A  
HETATM    7  C   UNL     1     -10.694   6.970  72.540  1.00  0.00    -0.242 A  
HETATM    8  N   UNL     1     -11.948   7.448  72.799  1.00  0.00    -0.556 NA 
HETATM    9  C   UNL     1     -12.175   8.600  72.083  1.00  0.00    -0.386 A  
HETATM   10  H   UNL     1     -12.619   7.013  73.432  1.00  0.00     0.000 HD 
HETATM   11  C   UNL     1     -13.299   9.431  72.043  1.00  0.00    -0.525 A  
HETATM   12  C   UNL     1     -13.250  10.553  71.208  1.00  0.00    -0.399 A  
HETATM   13  C   UNL     1     -12.120  10.838  70.431  1.00  0.00    -0.443 A  
HETATM   14  C   UNL     1     -10.998   9.995  70.512  1.00  0.00    -0.392 A  
HETATM   15  C   UNL     1     -11.023   8.853  71.341  1.00  0.00    -0.380 A  
BRANCH  13  16
HETATM   16  C   UNL     1     -12.103  12.047  69.523  1.00  0.00    -0.273 C  
BRANCH  16  17
HETATM   17  C   UNL     1     -11.928  13.363  70.279  1.00  0.00    -0.308 C  
HETATM   18  C   UNL     1     -11.694  14.577  69.399  1.00  0.00    -0.318 C  
HETATM   19  O   UNL     1     -12.202  15.667  70.183  1.00  0.00    -0.379 OA 
HETATM   20  C   UNL     1     -13.083  15.147  71.091  1.00  0.00    -0.450 C  
HETATM   21  N   UNL     1     -13.086  13.778  71.008  1.00  0.00    -0.251 NA 
HETATM   22  O   UNL     1     -13.734  15.800  71.886  1.00  0.00    -0.444 OA 
ENDBRANCH  16  17
ENDBRANCH  13  16
ENDBRANCH   5   6
ENDBRANCH   4   5
ENDBRANCH   2   4
TORSDOF 5
ENDMDL
MODEL       77
REMARK 921   NORMALIZED FREE ENERGY PREDICTED BY IDOCK:   -5.00 KCAL/MOL
REMARK 922        TOTAL FREE ENERGY PREDICTED BY IDOCK:   -6.90 KCAL/MOL
REMARK 923 INTER-LIGAND FREE ENERGY PREDICTED BY IDOCK:   -6.59 KCAL/MOL
REMARK 924 INTRA-LIGAND FREE ENERGY PREDICTED BY IDOCK:   -0.31 KCAL/MOL
REMARK 927      BINDING AFFINITY PREDICTED BY RF-SCORE:    0.00 PKD
ROOT
HETATM    1  C   UNL     1     -12.020  14.546  64.509  1.00  0.00    -0.468 C  
HETATM    2  N   UNL     1     -12.339  13.945  65.809  1.00  0.00    -0.460 NA 
HETATM    3  C   UNL     1     -12.054  12.510  65.767  1.00  0.00    -0.378 C  
ENDROOT
BRANCH   2   4
HETATM    4  C   UNL     1     -11.580  14.637  66.873  1.00  0.00    -0.362 C  
BRANCH   4   5
HETATM    5  C   UNL     1     -10.850  13.697  67.851  1.00  0.00    -0.264 C  
BRANCH   5   6
HETATM    6  C   UNL     1     -11.601  13.501  69.137  1.00  0.00    -0.359 A  
HETATM    7  C   UNL     1     -12.228  14.480  69.880  1.00  0.00    -0.328 A  
HETATM    8  N   UNL     1     -12.808  13.893  70.971  1.00  0.00    -0.334 NA 
HETATM    9  C   UNL     1     -12.576  12.538  70.960  1.00  0.00    -0.256 A  
HETATM   10  H   UNL     1     -13.335  14.389  71.689  1.00  0.00     0.000 HD 
HETATM   11  C   UNL     1     -12.984  11.546  71.858  1.00  0.00    -0.453 A  
HETATM   12  C   UNL     1     -12.594  10.228  71.594  1.00  0.00    -0.534 A  
HETATM   13  C   UNL     1     -11.818   9.906  70.474  1.00  0.00    -0.350 A  
HETATM   14  C   UNL     1     -11.444  10.923  69.578  1.00  0.00    -0.372 A  
HETATM   15  C   UNL     1     -11.819  12.261  69.824  1.00  0.00    -0.388 A  
BRANCH  13  16
HETATM   16  C   UNL     1     -11.395   8.475  70.224  1.00  0.00    -0.135 C  
BRANCH  16  17
HETATM   17  C   UNL     1     -10.115   8.089  70.964  1.00  0.00    -0.186 C  
HETATM   18  C   UNL     1      -9.166   7.206  70.176  1.00  0.00    -0.155 C  
HETATM   19  O   UNL     1      -7.877   7.516  70.729  1.00  0.00    -0.095 OA 
HETATM   20  C   UNL     1      -7.967   8.746  71.319  1.00  0.00    -0.139 C  
HETATM   21  N   UNL     1      -9.262   9.194  71.273  1.00  0.00    -0.261 NA 
HETATM   22  O   UNL     1      -7.042   9.337  71.848  1.00  0.00    -0.319 OA 
ENDBRANCH  16  17
ENDBRANCH  13  16
ENDBRANCH   5   6
ENDBRANCH   4   5
ENDBRANCH   2   4
TORSDOF 5
ENDMDL
MODEL       78
REMARK 921   NORMALIZED FREE ENERGY PREDICTED BY IDOCK:   -5.00 KCAL/MOL
REMARK 922        TOTAL FREE ENERGY PREDICTED BY IDOCK:   -6.90 KCAL/MOL
REMARK 923 INTER-LIGAND FREE ENERGY PREDICTED BY IDOCK:   -6.70 KCAL/MOL
REMARK 924 INTRA-LIGAND FREE ENERGY PREDICTED BY IDOCK:   -0.20 KCAL/MOL
REMARK 927      BINDING AFFINITY PREDICTED BY RF-SCORE:    0.00 PKD
ROOT
HETATM    1  C   UNL     1     -13.070  10.783  71.659  1.00  0.00    -0.446 C  
HETATM    2  N   UNL     1     -12.624  11.622  70.541  1.00  0.00    -0.224 NA 
HETATM    3  C   UNL     1     -12.681  13.031  70.934  1.00  0.00    -0.217 C  
ENDROOT
BRANCH   2   4
HETATM    4  C   UNL     1     -11.267  11.210  70.125  1.00  0.00    -0.128 C  
BRANCH   4   5
HETATM    5  C   UNL     1     -11.115   9.702  69.848  1.00  0.00    -0.268 C  
BRANCH   5   6
HETATM    6  C   UNL     1     -10.220   9.413  68.677  1.00  0.00    -0.222 A  
HETATM    7  C   UNL     1      -9.177   8.512  68.642  1.00  0.00    -0.142 A  
HETATM    8  N   UNL     1      -8.623   8.536  67.392  1.00  0.00    -0.126 NA 
HETATM    9  C   UNL     1      -9.286   9.440  66.596  1.00  0.00    -0.163 A  
HETATM   10  H   UNL     1      -7.832   7.966  67.093  1.00  0.00     0.000 HD 
HETATM   11  C   UNL     1      -9.079   9.786  65.256  1.00  0.00    -0.259 A  
HETATM   12  C   UNL     1      -9.918  10.756  64.697  1.00  0.00    -0.386 A  
HETATM   13  C   UNL     1     -10.930  11.368  65.446  1.00  0.00    -0.249 A  
HETATM   14  C   UNL     1     -11.128  10.981  66.784  1.00  0.00    -0.240 A  
HETATM   15  C   UNL     1     -10.292  10.009  67.375  1.00  0.00    -0.292 A  
BRANCH  13  16
HETATM   16  C   UNL     1     -11.809  12.427  64.820  1.00  0.00    -0.442 C  
BRANCH  16  17
HETATM   17  C   UNL     1     -11.578  13.821  65.403  1.00  0.00    -0.320 C  
HETATM   18  C   UNL     1     -10.136  14.134  65.754  1.00  0.00    -0.333 C  
HETATM   19  O   UNL     1     -10.060  15.563  65.634  1.00  0.00    -0.326 OA 
HETATM   20  C   UNL     1     -11.082  15.963  64.819  1.00  0.00    -0.384 C  
HETATM   21  N   UNL     1     -11.873  14.889  64.498  1.00  0.00    -0.426 NA 
HETATM   22  O   UNL     1     -11.286  17.110  64.465  1.00  0.00    -1.104 OA 
ENDBRANCH  16  17
ENDBRANCH  13  16
ENDBRANCH   5   6
ENDBRANCH   4   5
ENDBRANCH   2   4
TORSDOF 5
ENDMDL
MODEL       79
REMARK 921   NORMALIZED FREE ENERGY PREDICTED BY IDOCK:   -5.00 KCAL/MOL
REMARK 922        TOTAL FREE ENERGY PREDICTED BY IDOCK:   -6.90 KCAL/MOL
REMARK 923 INTER-LIGAND FREE ENERGY PREDICTED BY IDOCK:   -6.37 KCAL/MOL
REMARK 924 INTRA-LIGAND FREE ENERGY PREDICTED BY IDOCK:   -0.53 KCAL/MOL
REMARK 927      BINDING AFFINITY PREDICTED BY RF-SCORE:    0.00 PKD
ROOT
HETATM    1  C   UNL     1     -14.395   8.494  71.814  1.00  0.00    -0.437 C  
HETATM    2  N   UNL     1     -13.075   9.035  71.468  1.00  0.00    -0.337 NA 
HETATM    3  C   UNL     1     -13.143  10.496  71.420  1.00  0.00    -0.410 C  
ENDROOT
BRANCH   2   4
HETATM    4  C   UNL     1     -12.074   8.551  72.443  1.00  0.00    -0.367 C  
BRANCH   4   5
HETATM    5  C   UNL     1     -11.013   7.604  71.852  1.00  0.00    -0.282 C  
BRANCH   5   6
HETATM    6  C   UNL     1      -9.716   8.299  71.551  1.00  0.00    -0.251 A  
HETATM    7  C   UNL     1      -8.607   8.361  72.369  1.00  0.00    -0.193 A  
HETATM    8  N   UNL     1      -7.632   9.073  71.728  1.00  0.00    -0.340 NA 
HETATM    9  C   UNL     1      -8.077   9.481  70.493  1.00  0.00    -0.166 A  
HETATM   10  H   UNL     1      -6.708   9.272  72.110  1.00  0.00     0.000 HD 
HETATM   11  C   UNL     1      -7.425  10.215  69.495  1.00  0.00    -0.133 A  
HETATM   12  C   UNL     1      -8.135  10.492  68.322  1.00  0.00    -0.115 A  
HETATM   13  C   UNL     1      -9.455  10.059  68.146  1.00  0.00    -0.148 A  
HETATM   14  C   UNL     1     -10.074   9.303  69.158  1.00  0.00    -0.204 A  
HETATM   15  C   UNL     1      -9.383   9.015  70.354  1.00  0.00    -0.244 A  
BRANCH  13  16
HETATM   16  C   UNL     1     -10.204  10.390  66.874  1.00  0.00    -0.281 C  
BRANCH  16  17
HETATM   17  C   UNL     1     -10.995  11.694  66.965  1.00  0.00    -0.288 C  
HETATM   18  C   UNL     1     -10.170  12.954  66.784  1.00  0.00    -0.241 C  
HETATM   19  O   UNL     1     -11.113  13.905  66.265  1.00  0.00    -0.300 OA 
HETATM   20  C   UNL     1     -12.143  13.201  65.706  1.00  0.00    -0.447 C  
HETATM   21  N   UNL     1     -11.970  11.860  65.932  1.00  0.00    -0.431 NA 
HETATM   22  O   UNL     1     -13.096  13.695  65.131  1.00  0.00    -0.750 OA 
ENDBRANCH  16  17
ENDBRANCH  13  16
ENDBRANCH   5   6
ENDBRANCH   4   5
ENDBRANCH   2   4
TORSDOF 5
ENDMDL
MODEL       80
REMARK 921   NORMALIZED FREE ENERGY PREDICTED BY IDOCK:   -4.97 KCAL/MOL
REMARK 922        TOTAL FREE ENERGY PREDICTED BY IDOCK:   -6.87 KCAL/MOL
REMARK 923 INTER-LIGAND FREE ENERGY PREDICTED BY IDOCK:   -6.42 KCAL/MOL
REMARK 924 INTRA-LIGAND FREE ENERGY PREDICTED BY IDOCK:   -0.44 KCAL/MOL
REMARK 927      BINDING AFFINITY PREDICTED BY RF-SCORE:    0.00 PKD
ROOT
HETATM    1  C   UNL     1      -8.030   7.764  67.745  1.00  0.00    -0.124 C  
HETATM    2  N   UNL     1      -8.780   8.447  66.685  1.00  0.00    -0.126 NA 
HETATM    3  C   UNL     1     -10.210   8.403  66.991  1.00  0.00    -0.307 C  
ENDROOT
BRANCH   2   4
HETATM    4  C   UNL     1      -8.279   9.831  66.541  1.00  0.00    -0.120 C  
BRANCH   4   5
HETATM    5  C   UNL     1      -7.937  10.240  65.096  1.00  0.00    -0.147 C  
BRANCH   5   6
HETATM    6  C   UNL     1      -9.117  10.805  64.358  1.00  0.00    -0.217 A  
HETATM    7  C   UNL     1      -9.643  10.342  63.170  1.00  0.00    -0.250 A  
HETATM    8  N   UNL     1     -10.720  11.118  62.838  1.00  0.00    -0.804 NA 
HETATM    9  C   UNL     1     -10.917  12.089  63.792  1.00  0.00    -0.426 A  
HETATM   10  H   UNL     1     -11.293  10.994  62.004  1.00  0.00     0.000 HD 
HETATM   11  C   UNL     1     -11.893  13.086  63.875  1.00  0.00    -0.542 A  
HETATM   12  C   UNL     1     -11.848  13.951  64.975  1.00  0.00    -0.383 A  
HETATM   13  C   UNL     1     -10.860  13.832  65.959  1.00  0.00    -0.282 A  
HETATM   14  C   UNL     1      -9.907  12.803  65.858  1.00  0.00    -0.243 A  
HETATM   15  C   UNL     1      -9.925  11.921  64.757  1.00  0.00    -0.262 A  
BRANCH  13  16
HETATM   16  C   UNL     1     -10.825  14.793  67.126  1.00  0.00    -0.311 C  
BRANCH  16  17
HETATM   17  C   UNL     1     -11.956  14.563  68.128  1.00  0.00    -0.261 C  
HETATM   18  C   UNL     1     -11.680  13.490  69.165  1.00  0.00    -0.327 C  
HETATM   19  O   UNL     1     -12.482  13.890  70.287  1.00  0.00    -0.335 OA 
HETATM   20  C   UNL     1     -12.731  15.228  70.160  1.00  0.00    -0.242 C  
HETATM   21  N   UNL     1     -12.230  15.686  68.969  1.00  0.00    -0.201 NA 
HETATM   22  O   UNL     1     -13.346  15.904  70.965  1.00  0.00    -0.514 OA 
ENDBRANCH  16  17
ENDBRANCH  13  16
ENDBRANCH   5   6
ENDBRANCH   4   5
ENDBRANCH   2   4
TORSDOF 5
ENDMDL
MODEL       81
REMARK 921   NORMALIZED FREE ENERGY PREDICTED BY IDOCK:   -4.97 KCAL/MOL
REMARK 922        TOTAL FREE ENERGY PREDICTED BY IDOCK:   -6.86 KCAL/MOL
REMARK 923 INTER-LIGAND FREE ENERGY PREDICTED BY IDOCK:   -6.49 KCAL/MOL
REMARK 924 INTRA-LIGAND FREE ENERGY PREDICTED BY IDOCK:   -0.37 KCAL/MOL
REMARK 927      BINDING AFFINITY PREDICTED BY RF-SCORE:    0.00 PKD
ROOT
HETATM    1  C   UNL     1     -12.532  11.971  63.381  1.00  0.00    -0.509 C  
HETATM    2  N   UNL     1     -11.201  11.960  64.000  1.00  0.00    -0.368 NA 
HETATM    3  C   UNL     1     -10.209  11.519  63.018  1.00  0.00    -0.265 C  
ENDROOT
BRANCH   2   4
HETATM    4  C   UNL     1     -10.897  13.301  64.542  1.00  0.00    -0.394 C  
BRANCH   4   5
HETATM    5  C   UNL     1     -10.063  13.293  65.837  1.00  0.00    -0.296 C  
BRANCH   5   6
HETATM    6  C   UNL     1     -10.828  13.806  67.023  1.00  0.00    -0.288 A  
HETATM    7  C   UNL     1     -11.959  13.243  67.578  1.00  0.00    -0.324 A  
HETATM    8  N   UNL     1     -12.341  14.001  68.650  1.00  0.00    -0.503 NA 
HETATM    9  C   UNL     1     -11.478  15.058  68.816  1.00  0.00    -0.319 A  
HETATM   10  H   UNL     1     -13.150  13.811  69.240  1.00  0.00     0.000 HD 
HETATM   11  C   UNL     1     -11.469  16.074  69.778  1.00  0.00    -0.318 A  
HETATM   12  C   UNL     1     -10.454  17.035  69.701  1.00  0.00    -0.099 A  
HETATM   13  C   UNL     1      -9.481  16.992  68.695  1.00  0.00    -0.274 A  
HETATM   14  C   UNL     1      -9.504  15.944  67.757  1.00  0.00    -0.216 A  
HETATM   15  C   UNL     1     -10.520  14.965  67.808  1.00  0.00    -0.255 A  
BRANCH  13  16
HETATM   16  C   UNL     1      -8.408  18.055  68.626  1.00  0.00    -0.282 C  
BRANCH  16  17
HETATM   17  C   UNL     1      -8.338  18.750  67.266  1.00  0.00    -0.268 C  
HETATM   18  C   UNL     1      -7.944  20.214  67.318  1.00  0.00    -0.327 C  
HETATM   19  O   UNL     1      -7.327  20.445  66.042  1.00  0.00    -0.243 OA 
HETATM   20  C   UNL     1      -6.915  19.235  65.558  1.00  0.00    -0.232 C  
HETATM   21  N   UNL     1      -7.329  18.230  66.396  1.00  0.00    -0.232 NA 
HETATM   22  O   UNL     1      -6.310  19.068  64.514  1.00  0.00    -0.480 OA 
ENDBRANCH  16  17
ENDBRANCH  13  16
ENDBRANCH   5   6
ENDBRANCH   4   5
ENDBRANCH   2   4
TORSDOF 5
ENDMDL
MODEL       82
REMARK 921   NORMALIZED FREE ENERGY PREDICTED BY IDOCK:   -4.95 KCAL/MOL
REMARK 922        TOTAL FREE ENERGY PREDICTED BY IDOCK:   -6.83 KCAL/MOL
REMARK 923 INTER-LIGAND FREE ENERGY PREDICTED BY IDOCK:   -6.65 KCAL/MOL
REMARK 924 INTRA-LIGAND FREE ENERGY PREDICTED BY IDOCK:   -0.18 KCAL/MOL
REMARK 927      BINDING AFFINITY PREDICTED BY RF-SCORE:    0.00 PKD
ROOT
HETATM    1  C   UNL     1     -11.781   7.198  71.306  1.00  0.00    -0.306 C  
HETATM    2  N   UNL     1     -11.288   8.234  72.220  1.00  0.00    -0.351 NA 
HETATM    3  C   UNL     1     -10.320   7.648  73.148  1.00  0.00    -0.352 C  
ENDROOT
BRANCH   2   4
HETATM    4  C   UNL     1     -10.711   9.348  71.437  1.00  0.00    -0.337 C  
BRANCH   4   5
HETATM    5  C   UNL     1     -11.752  10.291  70.805  1.00  0.00    -0.453 C  
BRANCH   5   6
HETATM    6  C   UNL     1     -11.402  10.682  69.398  1.00  0.00    -0.348 A  
HETATM    7  C   UNL     1     -11.016   9.834  68.380  1.00  0.00    -0.152 A  
HETATM    8  N   UNL     1     -10.800  10.577  67.253  1.00  0.00    -0.286 NA 
HETATM    9  C   UNL     1     -11.041  11.907  67.507  1.00  0.00    -0.273 A  
HETATM   10  H   UNL     1     -10.503  10.200  66.353  1.00  0.00     0.000 HD 
HETATM   11  C   UNL     1     -10.963  13.016  66.659  1.00  0.00    -0.301 A  
HETATM   12  C   UNL     1     -11.266  14.271  67.199  1.00  0.00    -0.333 A  
HETATM   13  C   UNL     1     -11.631  14.421  68.543  1.00  0.00    -0.347 A  
HETATM   14  C   UNL     1     -11.723  13.282  69.363  1.00  0.00    -0.383 A  
HETATM   15  C   UNL     1     -11.416  12.005  68.845  1.00  0.00    -0.356 A  
BRANCH  13  16
HETATM   16  C   UNL     1     -11.935  15.792  69.103  1.00  0.00    -0.312 C  
BRANCH  16  17
HETATM   17  C   UNL     1     -10.679  16.615  69.391  1.00  0.00    -0.331 C  
HETATM   18  C   UNL     1      -9.384  15.826  69.377  1.00  0.00    -0.269 C  
HETATM   19  O   UNL     1      -8.396  16.803  69.013  1.00  0.00    -0.234 OA 
HETATM   20  C   UNL     1      -9.042  17.825  68.376  1.00  0.00    -0.278 C  
HETATM   21  N   UNL     1     -10.397  17.613  68.407  1.00  0.00    -0.366 NA 
HETATM   22  O   UNL     1      -8.499  18.801  67.892  1.00  0.00    -0.280 OA 
ENDBRANCH  16  17
ENDBRANCH  13  16
ENDBRANCH   5   6
ENDBRANCH   4   5
ENDBRANCH   2   4
TORSDOF 5
ENDMDL
MODEL       83
REMARK 921   NORMALIZED FREE ENERGY PREDICTED BY IDOCK:   -4.93 KCAL/MOL
REMARK 922        TOTAL FREE ENERGY PREDICTED BY IDOCK:   -6.81 KCAL/MOL
REMARK 923 INTER-LIGAND FREE ENERGY PREDICTED BY IDOCK:   -6.26 KCAL/MOL
REMARK 924 INTRA-LIGAND FREE ENERGY PREDICTED BY IDOCK:   -0.56 KCAL/MOL
REMARK 927      BINDING AFFINITY PREDICTED BY RF-SCORE:    0.00 PKD
ROOT
HETATM    1  C   UNL     1      -9.339  10.060  62.642  1.00  0.00    -0.266 C  
HETATM    2  N   UNL     1      -9.677  10.467  64.012  1.00  0.00    -0.311 NA 
HETATM    3  C   UNL     1      -8.498  10.326  64.868  1.00  0.00    -0.177 C  
ENDROOT
BRANCH   2   4
HETATM    4  C   UNL     1     -10.201  11.849  64.000  1.00  0.00    -0.361 C  
BRANCH   4   5
HETATM    5  C   UNL     1     -11.673  11.977  64.435  1.00  0.00    -0.399 C  
BRANCH   5   6
HETATM    6  C   UNL     1     -11.848  12.851  65.644  1.00  0.00    -0.464 A  
HETATM    7  C   UNL     1     -12.143  14.199  65.649  1.00  0.00    -0.415 A  
HETATM    8  N   UNL     1     -12.232  14.620  66.947  1.00  0.00    -0.447 NA 
HETATM    9  C   UNL     1     -12.002  13.570  67.804  1.00  0.00    -0.334 A  
HETATM   10  H   UNL     1     -12.438  15.575  67.237  1.00  0.00     0.000 HD 
HETATM   11  C   UNL     1     -12.004  13.529  69.202  1.00  0.00    -0.378 A  
HETATM   12  C   UNL     1     -11.730  12.302  69.818  1.00  0.00    -0.368 A  
HETATM   13  C   UNL     1     -11.457  11.152  69.068  1.00  0.00    -0.364 A  
HETATM   14  C   UNL     1     -11.487  11.221  67.663  1.00  0.00    -0.341 A  
HETATM   15  C   UNL     1     -11.754  12.447  67.017  1.00  0.00    -0.423 A  
BRANCH  13  16
HETATM   16  C   UNL     1     -11.146   9.845  69.761  1.00  0.00    -0.294 C  
BRANCH  16  17
HETATM   17  C   UNL     1      -9.660   9.668  70.071  1.00  0.00    -0.243 C  
HETATM   18  C   UNL     1      -9.362   8.958  71.378  1.00  0.00    -0.268 C  
HETATM   19  O   UNL     1      -8.082   8.349  71.149  1.00  0.00    -0.102 OA 
HETATM   20  C   UNL     1      -7.917   8.232  69.797  1.00  0.00    -0.106 C  
HETATM   21  N   UNL     1      -8.965   8.829  69.144  1.00  0.00    -0.137 NA 
HETATM   22  O   UNL     1      -6.959   7.715  69.252  1.00  0.00    -0.057 OA 
ENDBRANCH  16  17
ENDBRANCH  13  16
ENDBRANCH   5   6
ENDBRANCH   4   5
ENDBRANCH   2   4
TORSDOF 5
ENDMDL
MODEL       84
REMARK 921   NORMALIZED FREE ENERGY PREDICTED BY IDOCK:   -4.91 KCAL/MOL
REMARK 922        TOTAL FREE ENERGY PREDICTED BY IDOCK:   -6.79 KCAL/MOL
REMARK 923 INTER-LIGAND FREE ENERGY PREDICTED BY IDOCK:   -6.41 KCAL/MOL
REMARK 924 INTRA-LIGAND FREE ENERGY PREDICTED BY IDOCK:   -0.38 KCAL/MOL
REMARK 927      BINDING AFFINITY PREDICTED BY RF-SCORE:    0.00 PKD
ROOT
HETATM    1  C   UNL     1      -8.435   6.343  69.402  1.00  0.00    -0.126 C  
HETATM    2  N   UNL     1      -8.970   6.835  70.677  1.00  0.00    -0.151 NA 
HETATM    3  C   UNL     1      -7.882   6.961  71.647  1.00  0.00    -0.100 C  
ENDROOT
BRANCH   2   4
HETATM    4  C   UNL     1      -9.675   8.115  70.454  1.00  0.00    -0.178 C  
BRANCH   4   5
HETATM    5  C   UNL     1     -11.196   7.980  70.250  1.00  0.00    -0.192 C  
BRANCH   5   6
HETATM    6  C   UNL     1     -11.972   9.073  70.928  1.00  0.00    -0.274 A  
HETATM    7  C   UNL     1     -12.829   8.929  72.000  1.00  0.00    -0.397 A  
HETATM    8  N   UNL     1     -13.325  10.160  72.329  1.00  0.00    -0.590 NA 
HETATM    9  C   UNL     1     -12.806  11.120  71.491  1.00  0.00    -0.437 A  
HETATM   10  H   UNL     1     -13.984  10.340  73.085  1.00  0.00     0.000 HD 
HETATM   11  C   UNL     1     -13.018  12.502  71.463  1.00  0.00    -0.379 A  
HETATM   12  C   UNL     1     -12.349  13.243  70.482  1.00  0.00    -0.389 A  
HETATM   13  C   UNL     1     -11.500  12.629  69.553  1.00  0.00    -0.294 A  
HETATM   14  C   UNL     1     -11.291  11.240  69.624  1.00  0.00    -0.359 A  
HETATM   15  C   UNL     1     -11.957  10.468  70.599  1.00  0.00    -0.455 A  
BRANCH  13  16
HETATM   16  C   UNL     1     -10.806  13.453  68.492  1.00  0.00    -0.285 C  
BRANCH  16  17
HETATM   17  C   UNL     1     -10.779  14.947  68.814  1.00  0.00    -0.252 C  
HETATM   18  C   UNL     1      -9.443  15.468  69.308  1.00  0.00    -0.263 C  
HETATM   19  O   UNL     1      -9.453  16.850  68.918  1.00  0.00    -0.259 OA 
HETATM   20  C   UNL     1     -10.351  16.984  67.896  1.00  0.00    -0.338 C  
HETATM   21  N   UNL     1     -10.996  15.792  67.682  1.00  0.00    -0.314 NA 
HETATM   22  O   UNL     1     -10.578  18.018  67.295  1.00  0.00    -0.380 OA 
ENDBRANCH  16  17
ENDBRANCH  13  16
ENDBRANCH   5   6
ENDBRANCH   4   5
ENDBRANCH   2   4
TORSDOF 5
ENDMDL
MODEL       85
REMARK 921   NORMALIZED FREE ENERGY PREDICTED BY IDOCK:   -4.91 KCAL/MOL
REMARK 922        TOTAL FREE ENERGY PREDICTED BY IDOCK:   -6.78 KCAL/MOL
REMARK 923 INTER-LIGAND FREE ENERGY PREDICTED BY IDOCK:   -6.12 KCAL/MOL
REMARK 924 INTRA-LIGAND FREE ENERGY PREDICTED BY IDOCK:   -0.66 KCAL/MOL
REMARK 927      BINDING AFFINITY PREDICTED BY RF-SCORE:    0.00 PKD
ROOT
HETATM    1  C   UNL     1      -9.225  12.552  68.093  1.00  0.00    -0.209 C  
HETATM    2  N   UNL     1      -7.793  12.238  68.159  1.00  0.00    -0.139 NA 
HETATM    3  C   UNL     1      -7.291  11.960  66.812  1.00  0.00    -0.011 C  
ENDROOT
BRANCH   2   4
HETATM    4  C   UNL     1      -7.073  13.355  68.807  1.00  0.00    -0.101 C  
BRANCH   4   5
HETATM    5  C   UNL     1      -6.539  14.421  67.831  1.00  0.00    -0.179 C  
BRANCH   5   6
HETATM    6  C   UNL     1      -7.243  15.741  67.971  1.00  0.00    -0.141 A  
HETATM    7  C   UNL     1      -6.910  16.763  68.835  1.00  0.00    -0.198 A  
HETATM    8  N   UNL     1      -7.786  17.796  68.645  1.00  0.00    -0.284 NA 
HETATM    9  C   UNL     1      -8.694  17.474  67.664  1.00  0.00    -0.223 A  
HETATM   10  H   UNL     1      -7.768  18.677  69.157  1.00  0.00     0.000 HD 
HETATM   11  C   UNL     1      -9.751  18.221  67.133  1.00  0.00    -0.307 A  
HETATM   12  C   UNL     1     -10.525  17.629  66.128  1.00  0.00    -0.295 A  
HETATM   13  C   UNL     1     -10.260  16.334  65.667  1.00  0.00    -0.368 A  
HETATM   14  C   UNL     1      -9.174  15.620  66.205  1.00  0.00    -0.378 A  
HETATM   15  C   UNL     1      -8.382  16.190  67.224  1.00  0.00    -0.204 A  
BRANCH  13  16
HETATM   16  C   UNL     1     -11.125  15.715  64.593  1.00  0.00    -0.387 C  
BRANCH  16  17
HETATM   17  C   UNL     1     -11.272  14.201  64.739  1.00  0.00    -0.378 C  
HETATM   18  C   UNL     1     -12.265  13.757  65.798  1.00  0.00    -0.462 C  
HETATM   19  O   UNL     1     -12.709  12.474  65.330  1.00  0.00    -0.654 OA 
HETATM   20  C   UNL     1     -12.473  12.422  63.984  1.00  0.00    -0.459 C  
HETATM   21  N   UNL     1     -11.804  13.550  63.582  1.00  0.00    -0.391 NA 
HETATM   22  O   UNL     1     -12.772  11.492  63.257  1.00  0.00    -0.350 OA 
ENDBRANCH  16  17
ENDBRANCH  13  16
ENDBRANCH   5   6
ENDBRANCH   4   5
ENDBRANCH   2   4
TORSDOF 5
ENDMDL
MODEL       86
REMARK 921   NORMALIZED FREE ENERGY PREDICTED BY IDOCK:   -4.90 KCAL/MOL
REMARK 922        TOTAL FREE ENERGY PREDICTED BY IDOCK:   -6.78 KCAL/MOL
REMARK 923 INTER-LIGAND FREE ENERGY PREDICTED BY IDOCK:   -6.20 KCAL/MOL
REMARK 924 INTRA-LIGAND FREE ENERGY PREDICTED BY IDOCK:   -0.57 KCAL/MOL
REMARK 927      BINDING AFFINITY PREDICTED BY RF-SCORE:    0.00 PKD
ROOT
HETATM    1  C   UNL     1     -11.782  13.390  68.915  1.00  0.00    -0.328 C  
HETATM    2  N   UNL     1     -11.999  14.592  68.102  1.00  0.00    -0.298 NA 
HETATM    3  C   UNL     1     -11.364  15.741  68.749  1.00  0.00    -0.362 C  
ENDROOT
BRANCH   2   4
HETATM    4  C   UNL     1     -11.484  14.362  66.735  1.00  0.00    -0.370 C  
BRANCH   4   5
HETATM    5  C   UNL     1     -12.310  13.364  65.901  1.00  0.00    -0.493 C  
BRANCH   5   6
HETATM    6  C   UNL     1     -11.463  12.543  64.972  1.00  0.00    -0.368 A  
HETATM    7  C   UNL     1     -11.232  12.792  63.634  1.00  0.00    -0.427 A  
HETATM    8  N   UNL     1     -10.398  11.822  63.150  1.00  0.00    -0.638 NA 
HETATM    9  C   UNL     1     -10.070  10.936  64.148  1.00  0.00    -0.355 A  
HETATM   10  H   UNL     1     -10.068  11.765  62.187  1.00  0.00     0.000 HD 
HETATM   11  C   UNL     1      -9.244   9.807  64.117  1.00  0.00    -0.277 A  
HETATM   12  C   UNL     1      -9.092   9.079  65.303  1.00  0.00    -0.226 A  
HETATM   13  C   UNL     1      -9.746   9.456  66.482  1.00  0.00    -0.299 A  
HETATM   14  C   UNL     1     -10.550  10.609  66.485  1.00  0.00    -0.257 A  
HETATM   15  C   UNL     1     -10.726  11.359  65.302  1.00  0.00    -0.326 A  
BRANCH  13  16
HETATM   16  C   UNL     1      -9.578   8.638  67.743  1.00  0.00    -0.178 C  
BRANCH  16  17
HETATM   17  C   UNL     1      -9.248   9.487  68.970  1.00  0.00    -0.155 C  
HETATM   18  C   UNL     1      -8.925   8.696  70.223  1.00  0.00    -0.154 C  
HETATM   19  O   UNL     1      -8.063   9.574  70.965  1.00  0.00    -0.312 OA 
HETATM   20  C   UNL     1      -7.518  10.461  70.080  1.00  0.00    -0.075 C  
HETATM   21  N   UNL     1      -8.062  10.275  68.835  1.00  0.00    -0.114 NA 
HETATM   22  O   UNL     1      -6.703  11.320  70.363  1.00  0.00    -0.193 OA 
ENDBRANCH  16  17
ENDBRANCH  13  16
ENDBRANCH   5   6
ENDBRANCH   4   5
ENDBRANCH   2   4
TORSDOF 5
ENDMDL
MODEL       87
REMARK 921   NORMALIZED FREE ENERGY PREDICTED BY IDOCK:   -4.90 KCAL/MOL
REMARK 922        TOTAL FREE ENERGY PREDICTED BY IDOCK:   -6.77 KCAL/MOL
REMARK 923 INTER-LIGAND FREE ENERGY PREDICTED BY IDOCK:   -6.34 KCAL/MOL
REMARK 924 INTRA-LIGAND FREE ENERGY PREDICTED BY IDOCK:   -0.43 KCAL/MOL
REMARK 927      BINDING AFFINITY PREDICTED BY RF-SCORE:    0.00 PKD
ROOT
HETATM    1  C   UNL     1     -13.476   8.965  71.325  1.00  0.00    -0.176 C  
HETATM    2  N   UNL     1     -12.020   9.132  71.403  1.00  0.00    -0.317 NA 
HETATM    3  C   UNL     1     -11.364   8.042  70.679  1.00  0.00    -0.252 C  
ENDROOT
BRANCH   2   4
HETATM    4  C   UNL     1     -11.646  10.461  70.874  1.00  0.00    -0.337 C  
BRANCH   4   5
HETATM    5  C   UNL     1     -12.732  11.542  71.038  1.00  0.00    -0.426 C  
BRANCH   5   6
HETATM    6  C   UNL     1     -12.299  12.883  70.520  1.00  0.00    -0.362 A  
HETATM    7  C   UNL     1     -12.093  14.025  71.266  1.00  0.00    -0.224 A  
HETATM    8  N   UNL     1     -11.692  15.027  70.427  1.00  0.00    -0.271 NA 
HETATM    9  C   UNL     1     -11.626  14.565  69.133  1.00  0.00    -0.298 A  
HETATM   10  H   UNL     1     -11.474  15.980  70.717  1.00  0.00     0.000 HD 
HETATM   11  C   UNL     1     -11.256  15.225  67.957  1.00  0.00    -0.330 A  
HETATM   12  C   UNL     1     -11.285  14.494  66.764  1.00  0.00    -0.336 A  
HETATM   13  C   UNL     1     -11.677  13.150  66.738  1.00  0.00    -0.439 A  
HETATM   14  C   UNL     1     -12.020  12.509  67.942  1.00  0.00    -0.283 A  
HETATM   15  C   UNL     1     -12.005  13.224  69.159  1.00  0.00    -0.343 A  
BRANCH  13  16
HETATM   16  C   UNL     1     -11.717  12.391  65.431  1.00  0.00    -0.452 C  
BRANCH  16  17
HETATM   17  C   UNL     1     -10.330  12.001  64.920  1.00  0.00    -0.278 C  
HETATM   18  C   UNL     1      -9.637  10.917  65.723  1.00  0.00    -0.216 C  
HETATM   19  O   UNL     1      -8.767  10.291  64.767  1.00  0.00    -0.168 OA 
HETATM   20  C   UNL     1      -9.261  10.561  63.521  1.00  0.00    -0.274 C  
HETATM   21  N   UNL     1     -10.332  11.412  63.617  1.00  0.00    -0.371 NA 
HETATM   22  O   UNL     1      -8.792  10.143  62.478  1.00  0.00    -0.186 OA 
ENDBRANCH  16  17
ENDBRANCH  13  16
ENDBRANCH   5   6
ENDBRANCH   4   5
ENDBRANCH   2   4
TORSDOF 5
ENDMDL
MODEL       88
REMARK 921   NORMALIZED FREE ENERGY PREDICTED BY IDOCK:   -4.88 KCAL/MOL
REMARK 922        TOTAL FREE ENERGY PREDICTED BY IDOCK:   -6.75 KCAL/MOL
REMARK 923 INTER-LIGAND FREE ENERGY PREDICTED BY IDOCK:   -6.19 KCAL/MOL
REMARK 924 INTRA-LIGAND FREE ENERGY PREDICTED BY IDOCK:   -0.56 KCAL/MOL
REMARK 927      BINDING AFFINITY PREDICTED BY RF-SCORE:    0.00 PKD
ROOT
HETATM    1  C   UNL     1     -12.495   7.156  71.575  1.00  0.00    -0.381 C  
HETATM    2  N   UNL     1     -11.262   7.852  71.188  1.00  0.00    -0.256 NA 
HETATM    3  C   UNL     1     -11.063   7.727  69.743  1.00  0.00    -0.089 C  
ENDROOT
BRANCH   2   4
HETATM    4  C   UNL     1     -11.334   9.262  71.625  1.00  0.00    -0.397 C  
BRANCH   4   5
HETATM    5  C   UNL     1     -12.734   9.895  71.513  1.00  0.00    -0.515 C  
BRANCH   5   6
HETATM    6  C   UNL     1     -12.684  11.365  71.212  1.00  0.00    -0.498 A  
HETATM    7  C   UNL     1     -13.069  12.390  72.051  1.00  0.00    -0.365 A  
HETATM    8  N   UNL     1     -12.855  13.580  71.412  1.00  0.00    -0.363 NA 
HETATM    9  C   UNL     1     -12.331  13.359  70.160  1.00  0.00    -0.252 A  
HETATM   10  H   UNL     1     -13.055  14.498  71.806  1.00  0.00     0.000 HD 
HETATM   11  C   UNL     1     -11.946  14.268  69.169  1.00  0.00    -0.372 A  
HETATM   12  C   UNL     1     -11.439  13.750  67.972  1.00  0.00    -0.344 A  
HETATM   13  C   UNL     1     -11.322  12.370  67.763  1.00  0.00    -0.356 A  
HETATM   14  C   UNL     1     -11.695  11.484  68.788  1.00  0.00    -0.397 A  
HETATM   15  C   UNL     1     -12.215  11.979  70.003  1.00  0.00    -0.280 A  
BRANCH  13  16
HETATM   16  C   UNL     1     -10.789  11.840  66.451  1.00  0.00    -0.325 C  
BRANCH  16  17
HETATM   17  C   UNL     1      -9.721  10.761  66.630  1.00  0.00    -0.190 C  
HETATM   18  C   UNL     1      -9.882   9.550  65.730  1.00  0.00    -0.293 C  
HETATM   19  O   UNL     1      -8.542   9.055  65.585  1.00  0.00    -0.146 OA 
HETATM   20  C   UNL     1      -7.689  10.087  65.860  1.00  0.00    -0.116 C  
HETATM   21  N   UNL     1      -8.400  11.182  66.280  1.00  0.00    -0.170 NA 
HETATM   22  O   UNL     1      -6.475  10.029  65.787  1.00  0.00    -0.085 OA 
ENDBRANCH  16  17
ENDBRANCH  13  16
ENDBRANCH   5   6
ENDBRANCH   4   5
ENDBRANCH   2   4
TORSDOF 5
ENDMDL
MODEL       89
REMARK 921   NORMALIZED FREE ENERGY PREDICTED BY IDOCK:   -4.87 KCAL/MOL
REMARK 922        TOTAL FREE ENERGY PREDICTED BY IDOCK:   -6.73 KCAL/MOL
REMARK 923 INTER-LIGAND FREE ENERGY PREDICTED BY IDOCK:   -6.19 KCAL/MOL
REMARK 924 INTRA-LIGAND FREE ENERGY PREDICTED BY IDOCK:   -0.54 KCAL/MOL
REMARK 927      BINDING AFFINITY PREDICTED BY RF-SCORE:    0.00 PKD
ROOT
HETATM    1  C   UNL     1      -8.562  14.071  68.344  1.00  0.00    -0.174 C  
HETATM    2  N   UNL     1      -8.929  15.467  68.611  1.00  0.00    -0.181 NA 
HETATM    3  C   UNL     1      -7.730  16.305  68.563  1.00  0.00    -0.189 C  
ENDROOT
BRANCH   2   4
HETATM    4  C   UNL     1      -9.956  15.901  67.640  1.00  0.00    -0.237 C  
BRANCH   4   5
HETATM    5  C   UNL     1      -9.485  15.913  66.174  1.00  0.00    -0.375 C  
BRANCH   5   6
HETATM    6  C   UNL     1     -10.528  15.396  65.224  1.00  0.00    -0.440 A  
HETATM    7  C   UNL     1     -11.459  16.147  64.537  1.00  0.00    -0.230 A  
HETATM    8  N   UNL     1     -12.215  15.305  63.768  1.00  0.00    -0.962 NA 
HETATM    9  C   UNL     1     -11.796  14.006  63.934  1.00  0.00    -0.229 A  
HETATM   10  H   UNL     1     -12.978  15.599  63.160  1.00  0.00     0.000 HD 
HETATM   11  C   UNL     1     -12.263  12.826  63.346  1.00  0.00    -0.594 A  
HETATM   12  C   UNL     1     -11.639  11.627  63.710  1.00  0.00    -0.430 A  
HETATM   13  C   UNL     1     -10.588  11.600  64.634  1.00  0.00    -0.366 A  
HETATM   14  C   UNL     1     -10.127  12.807  65.189  1.00  0.00    -0.246 A  
HETATM   15  C   UNL     1     -10.742  14.029  64.845  1.00  0.00    -0.432 A  
BRANCH  13  16
HETATM   16  C   UNL     1      -9.946  10.287  65.022  1.00  0.00    -0.393 C  
BRANCH  16  17
HETATM   17  C   UNL     1      -8.561  10.090  64.408  1.00  0.00    -0.190 C  
HETATM   18  C   UNL     1      -7.414  10.118  65.401  1.00  0.00    -0.144 C  
HETATM   19  O   UNL     1      -6.406   9.307  64.777  1.00  0.00    -0.072 OA 
HETATM   20  C   UNL     1      -7.032   8.492  63.875  1.00  0.00    -0.083 C  
HETATM   21  N   UNL     1      -8.365   8.808  63.806  1.00  0.00    -0.162 NA 
HETATM   22  O   UNL     1      -6.480   7.642  63.201  1.00  0.00    -0.061 OA 
ENDBRANCH  16  17
ENDBRANCH  13  16
ENDBRANCH   5   6
ENDBRANCH   4   5
ENDBRANCH   2   4
TORSDOF 5
ENDMDL
MODEL       90
REMARK 921   NORMALIZED FREE ENERGY PREDICTED BY IDOCK:   -4.86 KCAL/MOL
REMARK 922        TOTAL FREE ENERGY PREDICTED BY IDOCK:   -6.72 KCAL/MOL
REMARK 923 INTER-LIGAND FREE ENERGY PREDICTED BY IDOCK:   -6.33 KCAL/MOL
REMARK 924 INTRA-LIGAND FREE ENERGY PREDICTED BY IDOCK:   -0.39 KCAL/MOL
REMARK 927      BINDING AFFINITY PREDICTED BY RF-SCORE:    0.00 PKD
ROOT
HETATM    1  C   UNL     1      -7.966   6.058  65.049  1.00  0.00    -0.125 C  
HETATM    2  N   UNL     1      -7.689   7.490  65.213  1.00  0.00    -0.104 NA 
HETATM    3  C   UNL     1      -7.866   8.172  63.930  1.00  0.00    -0.147 C  
ENDROOT
BRANCH   2   4
HETATM    4  C   UNL     1      -8.564   8.044  66.268  1.00  0.00    -0.143 C  
BRANCH   4   5
HETATM    5  C   UNL     1      -8.449   9.568  66.459  1.00  0.00    -0.130 C  
BRANCH   5   6
HETATM    6  C   UNL     1      -9.708  10.182  67.002  1.00  0.00    -0.224 A  
HETATM    7  C   UNL     1     -10.732   9.521  67.648  1.00  0.00    -0.250 A  
HETATM    8  N   UNL     1     -11.688  10.436  67.997  1.00  0.00    -0.729 NA 
HETATM    9  C   UNL     1     -11.309  11.695  67.594  1.00  0.00    -0.295 A  
HETATM   10  H   UNL     1     -12.555  10.216  68.485  1.00  0.00     0.000 HD 
HETATM   11  C   UNL     1     -11.958  12.925  67.747  1.00  0.00    -0.336 A  
HETATM   12  C   UNL     1     -11.330  14.062  67.226  1.00  0.00    -0.350 A  
HETATM   13  C   UNL     1     -10.096  13.979  66.569  1.00  0.00    -0.287 A  
HETATM   14  C   UNL     1      -9.459  12.731  66.453  1.00  0.00    -0.229 A  
HETATM   15  C   UNL     1     -10.073  11.568  66.963  1.00  0.00    -0.237 A  
BRANCH  13  16
HETATM   16  C   UNL     1      -9.450  15.223  66.000  1.00  0.00    -0.372 C  
BRANCH  16  17
HETATM   17  C   UNL     1     -10.046  16.516  66.554  1.00  0.00    -0.299 C  
HETATM   18  C   UNL     1      -9.109  17.325  67.431  1.00  0.00    -0.226 C  
HETATM   19  O   UNL     1      -9.579  18.673  67.277  1.00  0.00    -0.289 OA 
HETATM   20  C   UNL     1     -10.279  18.734  66.105  1.00  0.00    -0.421 C  
HETATM   21  N   UNL     1     -10.379  17.482  65.554  1.00  0.00    -0.636 NA 
HETATM   22  O   UNL     1     -10.780  19.743  65.641  1.00  0.00    -0.505 OA 
ENDBRANCH  16  17
ENDBRANCH  13  16
ENDBRANCH   5   6
ENDBRANCH   4   5
ENDBRANCH   2   4
TORSDOF 5
ENDMDL
MODEL       91
REMARK 921   NORMALIZED FREE ENERGY PREDICTED BY IDOCK:   -4.85 KCAL/MOL
REMARK 922        TOTAL FREE ENERGY PREDICTED BY IDOCK:   -6.71 KCAL/MOL
REMARK 923 INTER-LIGAND FREE ENERGY PREDICTED BY IDOCK:   -6.31 KCAL/MOL
REMARK 924 INTRA-LIGAND FREE ENERGY PREDICTED BY IDOCK:   -0.40 KCAL/MOL
REMARK 927      BINDING AFFINITY PREDICTED BY RF-SCORE:    0.00 PKD
ROOT
HETATM    1  C   UNL     1      -7.260  14.164  68.983  1.00  0.00    -0.110 C  
HETATM    2  N   UNL     1      -7.825  15.476  69.317  1.00  0.00    -0.213 NA 
HETATM    3  C   UNL     1      -6.794  16.504  69.172  1.00  0.00    -0.218 C  
ENDROOT
BRANCH   2   4
HETATM    4  C   UNL     1      -9.003  15.738  68.463  1.00  0.00    -0.194 C  
BRANCH   4   5
HETATM    5  C   UNL     1      -8.664  16.206  67.035  1.00  0.00    -0.228 C  
BRANCH   5   6
HETATM    6  C   UNL     1      -9.758  15.905  66.050  1.00  0.00    -0.375 A  
HETATM    7  C   UNL     1     -10.308  16.783  65.139  1.00  0.00     0.072 A  
HETATM    8  N   UNL     1     -11.264  16.120  64.419  1.00  0.00    -1.018 NA 
HETATM    9  C   UNL     1     -11.353  14.814  64.839  1.00  0.00    -0.410 A  
HETATM   10  H   UNL     1     -11.828  16.535  63.679  1.00  0.00     0.000 HD 
HETATM   11  C   UNL     1     -12.174  13.775  64.386  1.00  0.00    -0.440 A  
HETATM   12  C   UNL     1     -12.050  12.529  65.010  1.00  0.00    -0.504 A  
HETATM   13  C   UNL     1     -11.142  12.321  66.057  1.00  0.00    -0.347 A  
HETATM   14  C   UNL     1     -10.315  13.380  66.472  1.00  0.00    -0.284 A  
HETATM   15  C   UNL     1     -10.424  14.649  65.864  1.00  0.00    -0.325 A  
BRANCH  13  16
HETATM   16  C   UNL     1     -11.044  10.968  66.725  1.00  0.00    -0.240 C  
BRANCH  16  17
HETATM   17  C   UNL     1     -10.617  11.051  68.190  1.00  0.00    -0.191 C  
HETATM   18  C   UNL     1     -11.761  11.128  69.183  1.00  0.00    -0.338 C  
HETATM   19  O   UNL     1     -11.211  10.554  70.379  1.00  0.00    -0.304 OA 
HETATM   20  C   UNL     1     -10.154   9.769  70.011  1.00  0.00    -0.257 C  
HETATM   21  N   UNL     1      -9.926   9.893  68.664  1.00  0.00    -0.159 NA 
HETATM   22  O   UNL     1      -9.485   9.095  70.773  1.00  0.00    -0.229 OA 
ENDBRANCH  16  17
ENDBRANCH  13  16
ENDBRANCH   5   6
ENDBRANCH   4   5
ENDBRANCH   2   4
TORSDOF 5
ENDMDL
MODEL       92
REMARK 921   NORMALIZED FREE ENERGY PREDICTED BY IDOCK:   -4.84 KCAL/MOL
REMARK 922        TOTAL FREE ENERGY PREDICTED BY IDOCK:   -6.69 KCAL/MOL
REMARK 923 INTER-LIGAND FREE ENERGY PREDICTED BY IDOCK:   -6.09 KCAL/MOL
REMARK 924 INTRA-LIGAND FREE ENERGY PREDICTED BY IDOCK:   -0.60 KCAL/MOL
REMARK 927      BINDING AFFINITY PREDICTED BY RF-SCORE:    0.00 PKD
ROOT
HETATM    1  C   UNL     1     -14.395   8.276  71.774  1.00  0.00    -0.483 C  
HETATM    2  N   UNL     1     -13.199   9.052  71.425  1.00  0.00    -0.310 NA 
HETATM    3  C   UNL     1     -13.370  10.437  71.866  1.00  0.00    -0.364 C  
ENDROOT
BRANCH   2   4
HETATM    4  C   UNL     1     -12.006   8.416  72.021  1.00  0.00    -0.357 C  
BRANCH   4   5
HETATM    5  C   UNL     1     -10.665   9.029  71.575  1.00  0.00    -0.421 C  
BRANCH   5   6
HETATM    6  C   UNL     1     -10.340   8.733  70.139  1.00  0.00    -0.225 A  
HETATM    7  C   UNL     1      -9.777   7.575  69.645  1.00  0.00    -0.167 A  
HETATM    8  N   UNL     1      -9.656   7.694  68.288  1.00  0.00    -0.152 NA 
HETATM    9  C   UNL     1     -10.135   8.915  67.874  1.00  0.00    -0.206 A  
HETATM   10  H   UNL     1      -9.267   6.981  67.672  1.00  0.00     0.000 HD 
HETATM   11  C   UNL     1     -10.224   9.461  66.589  1.00  0.00    -0.319 A  
HETATM   12  C   UNL     1     -10.761  10.747  66.464  1.00  0.00    -0.245 A  
HETATM   13  C   UNL     1     -11.192  11.472  67.582  1.00  0.00    -0.343 A  
HETATM   14  C   UNL     1     -11.111  10.885  68.857  1.00  0.00    -0.307 A  
HETATM   15  C   UNL     1     -10.568   9.591  69.013  1.00  0.00    -0.238 A  
BRANCH  13  16
HETATM   16  C   UNL     1     -11.751  12.867  67.418  1.00  0.00    -0.428 C  
BRANCH  16  17
HETATM   17  C   UNL     1     -10.667  13.940  67.319  1.00  0.00    -0.284 C  
HETATM   18  C   UNL     1     -11.158  15.300  66.858  1.00  0.00    -0.288 C  
HETATM   19  O   UNL     1     -10.221  16.216  67.447  1.00  0.00    -0.260 OA 
HETATM   20  C   UNL     1      -9.640  15.583  68.510  1.00  0.00    -0.203 C  
HETATM   21  N   UNL     1     -10.066  14.281  68.571  1.00  0.00    -0.242 NA 
HETATM   22  O   UNL     1      -8.828  16.088  69.266  1.00  0.00    -0.248 OA 
ENDBRANCH  16  17
ENDBRANCH  13  16
ENDBRANCH   5   6
ENDBRANCH   4   5
ENDBRANCH   2   4
TORSDOF 5
ENDMDL
MODEL       93
REMARK 921   NORMALIZED FREE ENERGY PREDICTED BY IDOCK:   -4.83 KCAL/MOL
REMARK 922        TOTAL FREE ENERGY PREDICTED BY IDOCK:   -6.68 KCAL/MOL
REMARK 923 INTER-LIGAND FREE ENERGY PREDICTED BY IDOCK:   -6.15 KCAL/MOL
REMARK 924 INTRA-LIGAND FREE ENERGY PREDICTED BY IDOCK:   -0.54 KCAL/MOL
REMARK 927      BINDING AFFINITY PREDICTED BY RF-SCORE:    0.00 PKD
ROOT
HETATM    1  C   UNL     1     -10.464  17.201  68.807  1.00  0.00    -0.351 C  
HETATM    2  N   UNL     1     -10.850  15.798  68.614  1.00  0.00    -0.262 NA 
HETATM    3  C   UNL     1     -12.010  15.491  69.451  1.00  0.00    -0.336 C  
ENDROOT
BRANCH   2   4
HETATM    4  C   UNL     1     -11.112  15.553  67.179  1.00  0.00    -0.256 C  
BRANCH   4   5
HETATM    5  C   UNL     1     -12.145  14.445  66.900  1.00  0.00    -0.386 C  
BRANCH   5   6
HETATM    6  C   UNL     1     -11.516  13.180  66.389  1.00  0.00    -0.374 A  
HETATM    7  C   UNL     1     -11.188  12.896  65.079  1.00  0.00    -0.293 A  
HETATM    8  N   UNL     1     -10.624  11.651  65.032  1.00  0.00    -0.278 NA 
HETATM    9  C   UNL     1     -10.571  11.106  66.293  1.00  0.00    -0.253 A  
HETATM   10  H   UNL     1     -10.291  11.194  64.184  1.00  0.00     0.000 HD 
HETATM   11  C   UNL     1     -10.070   9.873  66.723  1.00  0.00    -0.292 A  
HETATM   12  C   UNL     1     -10.151   9.577  68.088  1.00  0.00    -0.214 A  
HETATM   13  C   UNL     1     -10.717  10.477  68.999  1.00  0.00    -0.259 A  
HETATM   14  C   UNL     1     -11.190  11.719  68.539  1.00  0.00    -0.306 A  
HETATM   15  C   UNL     1     -11.126  12.040  67.166  1.00  0.00    -0.344 A  
BRANCH  13  16
HETATM   16  C   UNL     1     -10.809  10.122  70.466  1.00  0.00    -0.340 C  
BRANCH  16  17
HETATM   17  C   UNL     1     -11.376   8.724  70.712  1.00  0.00    -0.272 C  
HETATM   18  C   UNL     1     -10.843   8.030  71.951  1.00  0.00    -0.257 C  
HETATM   19  O   UNL     1     -11.907   7.140  72.324  1.00  0.00    -0.280 OA 
HETATM   20  C   UNL     1     -13.060   7.620  71.769  1.00  0.00    -0.323 C  
HETATM   21  N   UNL     1     -12.782   8.702  70.974  1.00  0.00    -0.105 NA 
HETATM   22  O   UNL     1     -14.166   7.132  71.922  1.00  0.00    -0.368 OA 
ENDBRANCH  16  17
ENDBRANCH  13  16
ENDBRANCH   5   6
ENDBRANCH   4   5
ENDBRANCH   2   4
TORSDOF 5
ENDMDL
MODEL       94
REMARK 921   NORMALIZED FREE ENERGY PREDICTED BY IDOCK:   -4.83 KCAL/MOL
REMARK 922        TOTAL FREE ENERGY PREDICTED BY IDOCK:   -6.68 KCAL/MOL
REMARK 923 INTER-LIGAND FREE ENERGY PREDICTED BY IDOCK:   -6.19 KCAL/MOL
REMARK 924 INTRA-LIGAND FREE ENERGY PREDICTED BY IDOCK:   -0.49 KCAL/MOL
REMARK 927      BINDING AFFINITY PREDICTED BY RF-SCORE:    0.00 PKD
ROOT
HETATM    1  C   UNL     1      -7.620  10.979  67.602  1.00  0.00    -0.104 C  
HETATM    2  N   UNL     1      -7.389  10.598  66.204  1.00  0.00    -0.135 NA 
HETATM    3  C   UNL     1      -5.972  10.768  65.879  1.00  0.00    -0.135 C  
ENDROOT
BRANCH   2   4
HETATM    4  C   UNL     1      -7.851   9.210  65.988  1.00  0.00    -0.102 C  
BRANCH   4   5
HETATM    5  C   UNL     1      -9.241   9.096  65.332  1.00  0.00    -0.266 C  
BRANCH   5   6
HETATM    6  C   UNL     1      -9.624  10.329  64.566  1.00  0.00    -0.378 A  
HETATM    7  C   UNL     1      -9.298  10.619  63.257  1.00  0.00    -0.306 A  
HETATM    8  N   UNL     1      -9.848  11.828  62.929  1.00  0.00    -0.513 NA 
HETATM    9  C   UNL     1     -10.537  12.343  64.001  1.00  0.00    -0.413 A  
HETATM   10  H   UNL     1      -9.759  12.281  62.020  1.00  0.00     0.000 HD 
HETATM   11  C   UNL     1     -11.260  13.534  64.121  1.00  0.00    -0.341 A  
HETATM   12  C   UNL     1     -11.866  13.806  65.353  1.00  0.00    -0.371 A  
HETATM   13  C   UNL     1     -11.753  12.925  66.435  1.00  0.00    -0.454 A  
HETATM   14  C   UNL     1     -11.039  11.724  66.274  1.00  0.00    -0.364 A  
HETATM   15  C   UNL     1     -10.412  11.428  65.045  1.00  0.00    -0.361 A  
BRANCH  13  16
HETATM   16  C   UNL     1     -12.403  13.255  67.760  1.00  0.00     0.037 C  
BRANCH  16  17
HETATM   17  C   UNL     1     -11.522  14.118  68.662  1.00  0.00    -0.299 C  
HETATM   18  C   UNL     1     -11.715  15.614  68.497  1.00  0.00    -0.327 C  
HETATM   19  O   UNL     1     -11.349  16.146  69.780  1.00  0.00    -0.331 OA 
HETATM   20  C   UNL     1     -11.472  15.138  70.695  1.00  0.00    -0.305 C  
HETATM   21  N   UNL     1     -11.789  13.965  70.059  1.00  0.00    -0.308 NA 
HETATM   22  O   UNL     1     -11.285  15.254  71.893  1.00  0.00    -0.416 OA 
ENDBRANCH  16  17
ENDBRANCH  13  16
ENDBRANCH   5   6
ENDBRANCH   4   5
ENDBRANCH   2   4
TORSDOF 5
ENDMDL
MODEL       95
REMARK 921   NORMALIZED FREE ENERGY PREDICTED BY IDOCK:   -4.80 KCAL/MOL
REMARK 922        TOTAL FREE ENERGY PREDICTED BY IDOCK:   -6.64 KCAL/MOL
REMARK 923 INTER-LIGAND FREE ENERGY PREDICTED BY IDOCK:   -6.17 KCAL/MOL
REMARK 924 INTRA-LIGAND FREE ENERGY PREDICTED BY IDOCK:   -0.47 KCAL/MOL
REMARK 927      BINDING AFFINITY PREDICTED BY RF-SCORE:    0.00 PKD
ROOT
HETATM    1  C   UNL     1      -9.139   7.702  71.602  1.00  0.00    -0.134 C  
HETATM    2  N   UNL     1     -10.345   6.952  71.971  1.00  0.00    -0.198 NA 
HETATM    3  C   UNL     1     -10.588   7.093  73.407  1.00  0.00    -0.382 C  
ENDROOT
BRANCH   2   4
HETATM    4  C   UNL     1     -11.487   7.423  71.159  1.00  0.00    -0.279 C  
BRANCH   4   5
HETATM    5  C   UNL     1     -11.153   8.579  70.198  1.00  0.00    -0.192 C  
BRANCH   5   6
HETATM    6  C   UNL     1     -11.751   9.887  70.633  1.00  0.00    -0.404 A  
HETATM    7  C   UNL     1     -12.481  10.116  71.780  1.00  0.00    -0.360 A  
HETATM    8  N   UNL     1     -12.833  11.437  71.816  1.00  0.00    -0.389 NA 
HETATM    9  C   UNL     1     -12.343  12.089  70.709  1.00  0.00    -0.308 A  
HETATM   10  H   UNL     1     -13.379  11.875  72.557  1.00  0.00     0.000 HD 
HETATM   11  C   UNL     1     -12.443  13.433  70.336  1.00  0.00    -0.322 A  
HETATM   12  C   UNL     1     -11.839  13.822  69.134  1.00  0.00    -0.398 A  
HETATM   13  C   UNL     1     -11.161  12.902  68.325  1.00  0.00    -0.294 A  
HETATM   14  C   UNL     1     -11.058  11.562  68.742  1.00  0.00    -0.288 A  
HETATM   15  C   UNL     1     -11.663  11.142  69.945  1.00  0.00    -0.433 A  
BRANCH  13  16
HETATM   16  C   UNL     1     -10.534  13.347  67.023  1.00  0.00    -0.257 C  
BRANCH  16  17
HETATM   17  C   UNL     1     -10.677  12.316  65.904  1.00  0.00    -0.258 C  
HETATM   18  C   UNL     1     -11.199  12.869  64.592  1.00  0.00    -0.320 C  
HETATM   19  O   UNL     1     -10.648  11.980  63.607  1.00  0.00    -0.371 OA 
HETATM   20  C   UNL     1      -9.556  11.374  64.163  1.00  0.00    -0.191 C  
HETATM   21  N   UNL     1      -9.439  11.738  65.480  1.00  0.00    -0.206 NA 
HETATM   22  O   UNL     1      -8.821  10.592  63.587  1.00  0.00    -0.182 OA 
ENDBRANCH  16  17
ENDBRANCH  13  16
ENDBRANCH   5   6
ENDBRANCH   4   5
ENDBRANCH   2   4
TORSDOF 5
ENDMDL
MODEL       96
REMARK 921   NORMALIZED FREE ENERGY PREDICTED BY IDOCK:   -4.79 KCAL/MOL
REMARK 922        TOTAL FREE ENERGY PREDICTED BY IDOCK:   -6.63 KCAL/MOL
REMARK 923 INTER-LIGAND FREE ENERGY PREDICTED BY IDOCK:   -6.19 KCAL/MOL
REMARK 924 INTRA-LIGAND FREE ENERGY PREDICTED BY IDOCK:   -0.44 KCAL/MOL
REMARK 927      BINDING AFFINITY PREDICTED BY RF-SCORE:    0.00 PKD
ROOT
HETATM    1  C   UNL     1      -8.236   6.114  67.461  1.00  0.00    -0.109 C  
HETATM    2  N   UNL     1      -9.330   5.665  68.331  1.00  0.00    -0.117 NA 
HETATM    3  C   UNL     1      -9.404   4.204  68.308  1.00  0.00    -0.158 C  
ENDROOT
BRANCH   2   4
HETATM    4  C   UNL     1      -9.124   6.196  69.696  1.00  0.00    -0.137 C  
BRANCH   4   5
HETATM    5  C   UNL     1      -9.427   7.698  69.849  1.00  0.00    -0.160 C  
BRANCH   5   6
HETATM    6  C   UNL     1     -10.610   7.964  70.736  1.00  0.00    -0.222 A  
HETATM    7  C   UNL     1     -11.213   7.067  71.592  1.00  0.00    -0.245 A  
HETATM    8  N   UNL     1     -12.245   7.700  72.229  1.00  0.00    -0.465 NA 
HETATM    9  C   UNL     1     -12.333   9.006  71.808  1.00  0.00    -0.367 A  
HETATM   10  H   UNL     1     -12.861   7.266  72.916  1.00  0.00     0.000 HD 
HETATM   11  C   UNL     1     -13.217  10.020  72.191  1.00  0.00    -0.489 A  
HETATM   12  C   UNL     1     -13.072  11.273  71.585  1.00  0.00    -0.513 A  
HETATM   13  C   UNL     1     -12.084  11.511  70.622  1.00  0.00    -0.450 A  
HETATM   14  C   UNL     1     -11.196  10.476  70.277  1.00  0.00    -0.391 A  
HETATM   15  C   UNL     1     -11.323   9.201  70.868  1.00  0.00    -0.359 A  
BRANCH  13  16
HETATM   16  C   UNL     1     -11.964  12.870  69.970  1.00  0.00    -0.380 C  
BRANCH  16  17
HETATM   17  C   UNL     1     -11.225  12.831  68.633  1.00  0.00    -0.282 C  
HETATM   18  C   UNL     1     -12.026  13.339  67.448  1.00  0.00    -0.335 C  
HETATM   19  O   UNL     1     -11.021  13.816  66.539  1.00  0.00    -0.296 OA 
HETATM   20  C   UNL     1      -9.894  14.074  67.269  1.00  0.00    -0.242 C  
HETATM   21  N   UNL     1     -10.082  13.688  68.572  1.00  0.00    -0.232 NA 
HETATM   22  O   UNL     1      -8.861  14.536  66.820  1.00  0.00    -0.245 OA 
ENDBRANCH  16  17
ENDBRANCH  13  16
ENDBRANCH   5   6
ENDBRANCH   4   5
ENDBRANCH   2   4
TORSDOF 5
ENDMDL
MODEL       97
REMARK 921   NORMALIZED FREE ENERGY PREDICTED BY IDOCK:   -4.78 KCAL/MOL
REMARK 922        TOTAL FREE ENERGY PREDICTED BY IDOCK:   -6.61 KCAL/MOL
REMARK 923 INTER-LIGAND FREE ENERGY PREDICTED BY IDOCK:   -6.17 KCAL/MOL
REMARK 924 INTRA-LIGAND FREE ENERGY PREDICTED BY IDOCK:   -0.45 KCAL/MOL
REMARK 927      BINDING AFFINITY PREDICTED BY RF-SCORE:    0.00 PKD
ROOT
HETATM    1  C   UNL     1     -10.111  16.625  69.015  1.00  0.00    -0.293 C  
HETATM    2  N   UNL     1     -10.919  16.288  67.837  1.00  0.00    -0.333 NA 
HETATM    3  C   UNL     1     -10.264  16.799  66.632  1.00  0.00    -0.309 C  
ENDROOT
BRANCH   2   4
HETATM    4  C   UNL     1     -11.128  14.825  67.784  1.00  0.00    -0.299 C  
BRANCH   4   5
HETATM    5  C   UNL     1     -11.924  14.338  66.559  1.00  0.00    -0.448 C  
BRANCH   5   6
HETATM    6  C   UNL     1     -11.161  13.347  65.727  1.00  0.00    -0.295 A  
HETATM    7  C   UNL     1     -10.629  13.564  64.473  1.00  0.00    -0.424 A  
HETATM    8  N   UNL     1      -9.999  12.421  64.064  1.00  0.00    -0.575 NA 
HETATM    9  C   UNL     1     -10.104  11.450  65.031  1.00  0.00    -0.274 A  
HETATM   10  H   UNL     1      -9.521  12.306  63.171  1.00  0.00     0.000 HD 
HETATM   11  C   UNL     1      -9.607  10.142  65.054  1.00  0.00    -0.362 A  
HETATM   12  C   UNL     1      -9.874   9.364  66.186  1.00  0.00    -0.356 A  
HETATM   13  C   UNL     1     -10.615   9.868  67.262  1.00  0.00    -0.316 A  
HETATM   14  C   UNL     1     -11.079  11.194  67.218  1.00  0.00    -0.366 A  
HETATM   15  C   UNL     1     -10.831  11.999  66.085  1.00  0.00    -0.325 A  
BRANCH  13  16
HETATM   16  C   UNL     1     -10.903   8.998  68.465  1.00  0.00    -0.061 C  
BRANCH  16  17
HETATM   17  C   UNL     1     -10.066   7.719  68.495  1.00  0.00    -0.199 C  
HETATM   18  C   UNL     1      -8.917   7.734  69.486  1.00  0.00    -0.142 C  
HETATM   19  O   UNL     1      -8.730   6.347  69.808  1.00  0.00    -0.136 OA 
HETATM   20  C   UNL     1      -9.897   5.696  69.520  1.00  0.00    -0.180 C  
HETATM   21  N   UNL     1     -10.783   6.561  68.931  1.00  0.00    -0.245 NA 
HETATM   22  O   UNL     1     -10.104   4.512  69.717  1.00  0.00    -0.229 OA 
ENDBRANCH  16  17
ENDBRANCH  13  16
ENDBRANCH   5   6
ENDBRANCH   4   5
ENDBRANCH   2   4
TORSDOF 5
ENDMDL
MODEL       98
REMARK 921   NORMALIZED FREE ENERGY PREDICTED BY IDOCK:   -4.77 KCAL/MOL
REMARK 922        TOTAL FREE ENERGY PREDICTED BY IDOCK:   -6.61 KCAL/MOL
REMARK 923 INTER-LIGAND FREE ENERGY PREDICTED BY IDOCK:   -6.41 KCAL/MOL
REMARK 924 INTRA-LIGAND FREE ENERGY PREDICTED BY IDOCK:   -0.20 KCAL/MOL
REMARK 927      BINDING AFFINITY PREDICTED BY RF-SCORE:    0.00 PKD
ROOT
HETATM    1  C   UNL     1     -12.336  12.180  63.574  1.00  0.00    -0.574 C  
HETATM    2  N   UNL     1     -11.057  12.247  64.291  1.00  0.00    -0.323 NA 
HETATM    3  C   UNL     1     -10.041  11.499  63.549  1.00  0.00    -0.409 C  
ENDROOT
BRANCH   2   4
HETATM    4  C   UNL     1     -10.678  13.662  64.492  1.00  0.00    -0.407 C  
BRANCH   4   5
HETATM    5  C   UNL     1      -9.695  13.900  65.654  1.00  0.00    -0.157 C  
BRANCH   5   6
HETATM    6  C   UNL     1     -10.342  14.565  66.835  1.00  0.00    -0.264 A  
HETATM    7  C   UNL     1     -11.275  14.005  67.684  1.00  0.00    -0.297 A  
HETATM    8  N   UNL     1     -11.604  14.928  68.638  1.00  0.00    -0.304 NA 
HETATM    9  C   UNL     1     -10.900  16.092  68.435  1.00  0.00    -0.310 A  
HETATM   10  H   UNL     1     -12.275  14.776  69.390  1.00  0.00     0.000 HD 
HETATM   11  C   UNL     1     -10.903  17.287  69.163  1.00  0.00     0.017 A  
HETATM   12  C   UNL     1     -10.074  18.322  68.717  1.00  0.00    -0.393 A  
HETATM   13  C   UNL     1      -9.269  18.177  67.581  1.00  0.00    -0.259 A  
HETATM   14  C   UNL     1      -9.270  16.955  66.886  1.00  0.00    -0.253 A  
HETATM   15  C   UNL     1     -10.102  15.896  67.310  1.00  0.00    -0.260 A  
BRANCH  13  16
HETATM   16  C   UNL     1      -8.397  19.320  67.113  1.00  0.00    -0.305 C  
BRANCH  16  17
HETATM   17  C   UNL     1      -7.080  19.426  67.882  1.00  0.00    -0.256 C  
HETATM   18  C   UNL     1      -6.167  20.549  67.429  1.00  0.00    -0.229 C  
HETATM   19  O   UNL     1      -5.406  20.863  68.607  1.00  0.00    -0.284 OA 
HETATM   20  C   UNL     1      -6.118  20.421  69.687  1.00  0.00    -0.321 C  
HETATM   21  N   UNL     1      -7.236  19.746  69.267  1.00  0.00    -0.313 NA 
HETATM   22  O   UNL     1      -5.787  20.565  70.850  1.00  0.00    -0.510 OA 
ENDBRANCH  16  17
ENDBRANCH  13  16
ENDBRANCH   5   6
ENDBRANCH   4   5
ENDBRANCH   2   4
TORSDOF 5
ENDMDL
MODEL       99
REMARK 921   NORMALIZED FREE ENERGY PREDICTED BY IDOCK:   -4.77 KCAL/MOL
REMARK 922        TOTAL FREE ENERGY PREDICTED BY IDOCK:   -6.61 KCAL/MOL
REMARK 923 INTER-LIGAND FREE ENERGY PREDICTED BY IDOCK:   -6.20 KCAL/MOL
REMARK 924 INTRA-LIGAND FREE ENERGY PREDICTED BY IDOCK:   -0.40 KCAL/MOL
REMARK 927      BINDING AFFINITY PREDICTED BY RF-SCORE:    0.00 PKD
ROOT
HETATM    1  C   UNL     1      -9.245   3.490  66.406  1.00  0.00    -0.168 C  
HETATM    2  N   UNL     1      -9.945   4.730  66.052  1.00  0.00    -0.214 NA 
HETATM    3  C   UNL     1     -10.887   4.466  64.964  1.00  0.00    -0.063 C  
ENDROOT
BRANCH   2   4
HETATM    4  C   UNL     1     -10.612   5.279  67.252  1.00  0.00    -0.127 C  
BRANCH   4   5
HETATM    5  C   UNL     1      -9.659   5.947  68.262  1.00  0.00    -0.134 C  
BRANCH   5   6
HETATM    6  C   UNL     1     -10.390   6.670  69.357  1.00  0.00    -0.228 A  
HETATM    7  C   UNL     1     -10.926   6.108  70.497  1.00  0.00    -0.318 A  
HETATM    8  N   UNL     1     -11.493   7.101  71.247  1.00  0.00    -0.270 NA 
HETATM    9  C   UNL     1     -11.338   8.316  70.621  1.00  0.00    -0.244 A  
HETATM   10  H   UNL     1     -11.964   6.961  72.140  1.00  0.00     0.000 HD 
HETATM   11  C   UNL     1     -11.742   9.594  71.019  1.00  0.00    -0.433 A  
HETATM   12  C   UNL     1     -11.448  10.665  70.167  1.00  0.00    -0.411 A  
HETATM   13  C   UNL     1     -10.777  10.471  68.953  1.00  0.00    -0.253 A  
HETATM   14  C   UNL     1     -10.363   9.176  68.593  1.00  0.00    -0.233 A  
HETATM   15  C   UNL     1     -10.653   8.077  69.431  1.00  0.00    -0.210 A  
BRANCH  13  16
HETATM   16  C   UNL     1     -10.489  11.644  68.044  1.00  0.00    -0.217 C  
BRANCH  16  17
HETATM   17  C   UNL     1     -11.710  12.099  67.246  1.00  0.00    -0.299 C  
HETATM   18  C   UNL     1     -11.861  13.603  67.113  1.00  0.00    -0.396 C  
HETATM   19  O   UNL     1     -12.584  13.764  65.883  1.00  0.00    -0.472 OA 
HETATM   20  C   UNL     1     -12.397  12.630  65.143  1.00  0.00    -0.484 C  
HETATM   21  N   UNL     1     -11.688  11.709  65.870  1.00  0.00    -0.311 NA 
HETATM   22  O   UNL     1     -12.834  12.448  64.021  1.00  0.00    -0.717 OA 
ENDBRANCH  16  17
ENDBRANCH  13  16
ENDBRANCH   5   6
ENDBRANCH   4   5
ENDBRANCH   2   4
TORSDOF 5
ENDMDL
MODEL      100
REMARK 921   NORMALIZED FREE ENERGY PREDICTED BY IDOCK:   -4.77 KCAL/MOL
REMARK 922        TOTAL FREE ENERGY PREDICTED BY IDOCK:   -6.61 KCAL/MOL
REMARK 923 INTER-LIGAND FREE ENERGY PREDICTED BY IDOCK:   -6.20 KCAL/MOL
REMARK 924 INTRA-LIGAND FREE ENERGY PREDICTED BY IDOCK:   -0.41 KCAL/MOL
REMARK 927      BINDING AFFINITY PREDICTED BY RF-SCORE:    0.00 PKD
ROOT
HETATM    1  C   UNL     1     -13.713   9.575  72.084  1.00  0.00    -0.372 C  
HETATM    2  N   UNL     1     -13.138   8.226  72.106  1.00  0.00    -0.311 NA 
HETATM    3  C   UNL     1     -14.147   7.257  71.678  1.00  0.00    -0.384 C  
ENDROOT
BRANCH   2   4
HETATM    4  C   UNL     1     -11.930   8.191  71.254  1.00  0.00    -0.291 C  
BRANCH   4   5
HETATM    5  C   UNL     1     -11.605   9.523  70.552  1.00  0.00    -0.316 C  
BRANCH   5   6
HETATM    6  C   UNL     1     -10.213   9.557  69.988  1.00  0.00    -0.281 A  
HETATM    7  C   UNL     1      -9.056   9.163  70.628  1.00  0.00    -0.257 A  
HETATM    8  N   UNL     1      -8.004   9.337  69.772  1.00  0.00    -0.091 NA 
HETATM    9  C   UNL     1      -8.448   9.839  68.571  1.00  0.00    -0.115 A  
HETATM   10  H   UNL     1      -7.032   9.126  69.992  1.00  0.00     0.000 HD 
HETATM   11  C   UNL     1      -7.737  10.158  67.409  1.00  0.00    -0.095 A  
HETATM   12  C   UNL     1      -8.461  10.662  66.322  1.00  0.00    -0.155 A  
HETATM   13  C   UNL     1      -9.846  10.849  66.388  1.00  0.00    -0.249 A  
HETATM   14  C   UNL     1     -10.534  10.496  67.563  1.00  0.00    -0.284 A  
HETATM   15  C   UNL     1      -9.829   9.992  68.676  1.00  0.00    -0.168 A  
BRANCH  13  16
HETATM   16  C   UNL     1     -10.598  11.414  65.204  1.00  0.00    -0.352 C  
BRANCH  16  17
HETATM   17  C   UNL     1     -11.153  12.815  65.457  1.00  0.00    -0.285 C  
HETATM   18  C   UNL     1     -10.112  13.919  65.469  1.00  0.00    -0.298 C  
HETATM   19  O   UNL     1     -10.849  15.084  65.066  1.00  0.00    -0.371 OA 
HETATM   20  C   UNL     1     -11.960  14.657  64.393  1.00  0.00    -0.437 C  
HETATM   21  N   UNL     1     -12.035  13.288  64.436  1.00  0.00    -0.386 NA 
HETATM   22  O   UNL     1     -12.784  15.385  63.871  1.00  0.00    -0.695 OA 
ENDBRANCH  16  17
ENDBRANCH  13  16
ENDBRANCH   5   6
ENDBRANCH   4   5
ENDBRANCH   2   4
TORSDOF 5
ENDMDL
MODEL      101
REMARK 921   NORMALIZED FREE ENERGY PREDICTED BY IDOCK:   -4.75 KCAL/MOL
REMARK 922        TOTAL FREE ENERGY PREDICTED BY IDOCK:   -6.58 KCAL/MOL
REMARK 923 INTER-LIGAND FREE ENERGY PREDICTED BY IDOCK:   -6.22 KCAL/MOL
REMARK 924 INTRA-LIGAND FREE ENERGY PREDICTED BY IDOCK:   -0.36 KCAL/MOL
REMARK 927      BINDING AFFINITY PREDICTED BY RF-SCORE:    0.00 PKD
ROOT
HETATM    1  C   UNL     1      -8.974   8.337  72.247  1.00  0.00    -0.213 C  
HETATM    2  N   UNL     1      -9.488   8.085  70.896  1.00  0.00    -0.159 NA 
HETATM    3  C   UNL     1     -10.834   7.517  70.983  1.00  0.00    -0.235 C  
ENDROOT
BRANCH   2   4
HETATM    4  C   UNL     1      -9.458   9.341  70.115  1.00  0.00    -0.226 C  
BRANCH   4   5
HETATM    5  C   UNL     1     -10.699   9.573  69.232  1.00  0.00    -0.240 C  
BRANCH   5   6
HETATM    6  C   UNL     1     -10.378   9.553  67.764  1.00  0.00    -0.291 A  
HETATM    7  C   UNL     1      -9.703   8.561  67.083  1.00  0.00    -0.192 A  
HETATM    8  N   UNL     1      -9.629   8.913  65.764  1.00  0.00    -0.427 NA 
HETATM    9  C   UNL     1     -10.248  10.123  65.559  1.00  0.00    -0.218 A  
HETATM   10  H   UNL     1      -9.179   8.357  65.037  1.00  0.00     0.000 HD 
HETATM   11  C   UNL     1     -10.427  10.858  64.382  1.00  0.00    -0.403 A  
HETATM   12  C   UNL     1     -11.105  12.079  64.474  1.00  0.00    -0.384 A  
HETATM   13  C   UNL     1     -11.585  12.559  65.698  1.00  0.00    -0.435 A  
HETATM   14  C   UNL     1     -11.410  11.785  66.859  1.00  0.00    -0.386 A  
HETATM   15  C   UNL     1     -10.725  10.552  66.796  1.00  0.00    -0.252 A  
BRANCH  13  16
HETATM   16  C   UNL     1     -12.297  13.891  65.769  1.00  0.00    -0.518 C  
BRANCH  16  17
HETATM   17  C   UNL     1     -11.388  15.035  66.216  1.00  0.00    -0.273 C  
HETATM   18  C   UNL     1     -11.288  15.219  67.719  1.00  0.00    -0.326 C  
HETATM   19  O   UNL     1      -9.994  15.814  67.903  1.00  0.00    -0.224 OA 
HETATM   20  C   UNL     1      -9.242  15.512  66.802  1.00  0.00    -0.248 C  
HETATM   21  N   UNL     1     -10.011  14.855  65.875  1.00  0.00    -0.311 NA 
HETATM   22  O   UNL     1      -8.074  15.822  66.646  1.00  0.00    -0.257 OA 
ENDBRANCH  16  17
ENDBRANCH  13  16
ENDBRANCH   5   6
ENDBRANCH   4   5
ENDBRANCH   2   4
TORSDOF 5
ENDMDL
MODEL      102
REMARK 921   NORMALIZED FREE ENERGY PREDICTED BY IDOCK:   -4.75 KCAL/MOL
REMARK 922        TOTAL FREE ENERGY PREDICTED BY IDOCK:   -6.58 KCAL/MOL
REMARK 923 INTER-LIGAND FREE ENERGY PREDICTED BY IDOCK:   -6.07 KCAL/MOL
REMARK 924 INTRA-LIGAND FREE ENERGY PREDICTED BY IDOCK:   -0.51 KCAL/MOL
REMARK 927      BINDING AFFINITY PREDICTED BY RF-SCORE:    0.00 PKD
ROOT
HETATM    1  C   UNL     1     -10.662  16.469  67.787  1.00  0.00    -0.329 C  
HETATM    2  N   UNL     1     -10.439  15.326  66.895  1.00  0.00    -0.283 NA 
HETATM    3  C   UNL     1      -9.011  15.209  66.596  1.00  0.00    -0.287 C  
ENDROOT
BRANCH   2   4
HETATM    4  C   UNL     1     -10.984  14.100  67.517  1.00  0.00    -0.283 C  
BRANCH   4   5
HETATM    5  C   UNL     1     -12.136  13.444  66.733  1.00  0.00    -0.419 C  
BRANCH   5   6
HETATM    6  C   UNL     1     -11.710  12.951  65.379  1.00  0.00    -0.413 A  
HETATM    7  C   UNL     1     -12.062  13.491  64.160  1.00  0.00    -0.435 A  
HETATM    8  N   UNL     1     -11.459  12.764  63.171  1.00  0.00    -0.795 NA 
HETATM    9  C   UNL     1     -10.708  11.751  63.719  1.00  0.00    -0.419 A  
HETATM   10  H   UNL     1     -11.552  12.947  62.173  1.00  0.00     0.000 HD 
HETATM   11  C   UNL     1      -9.916  10.778  63.099  1.00  0.00    -0.341 A  
HETATM   12  C   UNL     1      -9.257   9.856  63.919  1.00  0.00    -0.295 A  
HETATM   13  C   UNL     1      -9.383   9.895  65.313  1.00  0.00    -0.309 A  
HETATM   14  C   UNL     1     -10.167  10.901  65.906  1.00  0.00    -0.314 A  
HETATM   15  C   UNL     1     -10.848  11.839  65.102  1.00  0.00    -0.351 A  
BRANCH  13  16
HETATM   16  C   UNL     1      -8.673   8.874  66.173  1.00  0.00    -0.177 C  
BRANCH  16  17
HETATM   17  C   UNL     1      -8.396   7.561  65.441  1.00  0.00    -0.124 C  
HETATM   18  C   UNL     1      -6.942   7.128  65.438  1.00  0.00    -0.056 C  
HETATM   19  O   UNL     1      -7.015   5.698  65.326  1.00  0.00    -0.057 OA 
HETATM   20  C   UNL     1      -8.253   5.313  65.758  1.00  0.00    -0.119 C  
HETATM   21  N   UNL     1      -9.016   6.418  66.036  1.00  0.00    -0.152 NA 
HETATM   22  O   UNL     1      -8.638   4.160  65.841  1.00  0.00    -0.112 OA 
ENDBRANCH  16  17
ENDBRANCH  13  16
ENDBRANCH   5   6
ENDBRANCH   4   5
ENDBRANCH   2   4
TORSDOF 5
ENDMDL
MODEL      103
REMARK 921   NORMALIZED FREE ENERGY PREDICTED BY IDOCK:   -4.74 KCAL/MOL
REMARK 922        TOTAL FREE ENERGY PREDICTED BY IDOCK:   -6.57 KCAL/MOL
REMARK 923 INTER-LIGAND FREE ENERGY PREDICTED BY IDOCK:   -6.13 KCAL/MOL
REMARK 924 INTRA-LIGAND FREE ENERGY PREDICTED BY IDOCK:   -0.44 KCAL/MOL
REMARK 927      BINDING AFFINITY PREDICTED BY RF-SCORE:    0.00 PKD
ROOT
HETATM    1  C   UNL     1     -12.281  14.363  70.763  1.00  0.00    -0.343 C  
HETATM    2  N   UNL     1     -13.032  14.246  72.018  1.00  0.00    -0.336 NA 
HETATM    3  C   UNL     1     -14.261  15.034  71.927  1.00  0.00    -0.555 C  
ENDROOT
BRANCH   2   4
HETATM    4  C   UNL     1     -13.299  12.820  72.301  1.00  0.00    -0.458 C  
BRANCH   4   5
HETATM    5  C   UNL     1     -12.793  11.848  71.218  1.00  0.00    -0.391 C  
BRANCH   5   6
HETATM    6  C   UNL     1     -12.954  10.407  71.610  1.00  0.00    -0.581 A  
HETATM    7  C   UNL     1     -14.077   9.825  72.160  1.00  0.00     0.055 A  
HETATM    8  N   UNL     1     -13.826   8.495  72.358  1.00  0.00    -0.602 NA 
HETATM    9  C   UNL     1     -12.552   8.186  71.944  1.00  0.00    -0.335 A  
HETATM   10  H   UNL     1     -14.488   7.830  72.756  1.00  0.00     0.000 HD 
HETATM   11  C   UNL     1     -11.875   6.962  71.943  1.00  0.00    -0.351 A  
HETATM   12  C   UNL     1     -10.563   6.944  71.457  1.00  0.00    -0.239 A  
HETATM   13  C   UNL     1      -9.939   8.107  70.990  1.00  0.00    -0.220 A  
HETATM   14  C   UNL     1     -10.656   9.317  70.982  1.00  0.00    -0.386 A  
HETATM   15  C   UNL     1     -11.978   9.365  71.473  1.00  0.00    -0.456 A  
BRANCH  13  16
HETATM   16  C   UNL     1      -8.514   8.060  70.489  1.00  0.00    -0.125 C  
BRANCH  16  17
HETATM   17  C   UNL     1      -7.496   7.790  71.596  1.00  0.00    -0.075 C  
HETATM   18  C   UNL     1      -6.045   7.850  71.156  1.00  0.00    -0.034 C  
HETATM   19  O   UNL     1      -5.343   8.222  72.352  1.00  0.00    -0.036 OA 
HETATM   20  C   UNL     1      -6.242   8.825  73.187  1.00  0.00    -0.031 C  
HETATM   21  N   UNL     1      -7.500   8.763  72.644  1.00  0.00    -0.355 NA 
HETATM   22  O   UNL     1      -5.974   9.306  74.274  1.00  0.00    -0.277 OA 
ENDBRANCH  16  17
ENDBRANCH  13  16
ENDBRANCH   5   6
ENDBRANCH   4   5
ENDBRANCH   2   4
TORSDOF 5
ENDMDL
MODEL      104
REMARK 921   NORMALIZED FREE ENERGY PREDICTED BY IDOCK:   -4.74 KCAL/MOL
REMARK 922        TOTAL FREE ENERGY PREDICTED BY IDOCK:   -6.57 KCAL/MOL
REMARK 923 INTER-LIGAND FREE ENERGY PREDICTED BY IDOCK:   -6.15 KCAL/MOL
REMARK 924 INTRA-LIGAND FREE ENERGY PREDICTED BY IDOCK:   -0.42 KCAL/MOL
REMARK 927      BINDING AFFINITY PREDICTED BY RF-SCORE:    0.00 PKD
ROOT
HETATM    1  C   UNL     1      -8.835   5.503  67.805  1.00  0.00    -0.105 C  
HETATM    2  N   UNL     1      -8.996   6.385  66.643  1.00  0.00    -0.135 NA 
HETATM    3  C   UNL     1      -9.250   5.579  65.448  1.00  0.00     0.003 C  
ENDROOT
BRANCH   2   4
HETATM    4  C   UNL     1     -10.080   7.356  66.907  1.00  0.00    -0.257 C  
BRANCH   4   5
HETATM    5  C   UNL     1      -9.640   8.606  67.692  1.00  0.00    -0.190 C  
BRANCH   5   6
HETATM    6  C   UNL     1     -10.527   8.894  68.869  1.00  0.00    -0.225 A  
HETATM    7  C   UNL     1     -10.960   7.987  69.813  1.00  0.00    -0.137 A  
HETATM    8  N   UNL     1     -11.737   8.646  70.726  1.00  0.00    -0.397 NA 
HETATM    9  C   UNL     1     -11.822   9.979  70.402  1.00  0.00    -0.262 A  
HETATM   10  H   UNL     1     -12.187   8.211  71.531  1.00  0.00     0.000 HD 
HETATM   11  C   UNL     1     -12.489  11.025  71.050  1.00  0.00    -0.512 A  
HETATM   12  C   UNL     1     -12.403  12.301  70.483  1.00  0.00    -0.349 A  
HETATM   13  C   UNL     1     -11.681  12.533  69.306  1.00  0.00    -0.379 A  
HETATM   14  C   UNL     1     -11.001  11.465  68.693  1.00  0.00    -0.267 A  
HETATM   15  C   UNL     1     -11.076  10.166  69.240  1.00  0.00    -0.270 A  
BRANCH  13  16
HETATM   16  C   UNL     1     -11.621  13.920  68.707  1.00  0.00    -0.370 C  
BRANCH  16  17
HETATM   17  C   UNL     1     -11.324  13.915  67.208  1.00  0.00    -0.323 C  
HETATM   18  C   UNL     1     -12.520  13.620  66.323  1.00  0.00    -0.366 C  
HETATM   19  O   UNL     1     -12.202  14.284  65.090  1.00  0.00    -0.396 OA 
HETATM   20  C   UNL     1     -11.282  15.256  65.371  1.00  0.00    -0.307 C  
HETATM   21  N   UNL     1     -10.911  15.182  66.690  1.00  0.00    -0.320 NA 
HETATM   22  O   UNL     1     -10.826  16.042  64.561  1.00  0.00    -0.588 OA 
ENDBRANCH  16  17
ENDBRANCH  13  16
ENDBRANCH   5   6
ENDBRANCH   4   5
ENDBRANCH   2   4
TORSDOF 5
ENDMDL
MODEL      105
REMARK 921   NORMALIZED FREE ENERGY PREDICTED BY IDOCK:   -4.74 KCAL/MOL
REMARK 922        TOTAL FREE ENERGY PREDICTED BY IDOCK:   -6.56 KCAL/MOL
REMARK 923 INTER-LIGAND FREE ENERGY PREDICTED BY IDOCK:   -6.64 KCAL/MOL
REMARK 924 INTRA-LIGAND FREE ENERGY PREDICTED BY IDOCK:    0.08 KCAL/MOL
REMARK 927      BINDING AFFINITY PREDICTED BY RF-SCORE:    0.00 PKD
ROOT
HETATM    1  C   UNL     1     -14.401  14.831  71.581  1.00  0.00    -0.557 C  
HETATM    2  N   UNL     1     -12.997  14.464  71.800  1.00  0.00    -0.328 NA 
HETATM    3  C   UNL     1     -12.741  13.144  71.221  1.00  0.00    -0.306 C  
ENDROOT
BRANCH   2   4
HETATM    4  C   UNL     1     -12.120  15.507  71.228  1.00  0.00    -0.386 C  
BRANCH   4   5
HETATM    5  C   UNL     1     -10.839  14.970  70.563  1.00  0.00    -0.159 C  
BRANCH   5   6
HETATM    6  C   UNL     1     -10.907  15.000  69.062  1.00  0.00    -0.242 A  
HETATM    7  C   UNL     1     -11.240  13.948  68.234  1.00  0.00    -0.272 A  
HETATM    8  N   UNL     1     -11.201  14.385  66.939  1.00  0.00    -0.324 NA 
HETATM    9  C   UNL     1     -10.850  15.714  66.896  1.00  0.00    -0.282 A  
HETATM   10  H   UNL     1     -11.403  13.809  66.122  1.00  0.00     0.000 HD 
HETATM   11  C   UNL     1     -10.699  16.573  65.803  1.00  0.00    -0.232 A  
HETATM   12  C   UNL     1     -10.325  17.897  66.062  1.00  0.00    -0.318 A  
HETATM   13  C   UNL     1     -10.101  18.352  67.367  1.00  0.00    -0.369 A  
HETATM   14  C   UNL     1     -10.284  17.469  68.446  1.00  0.00    -0.372 A  
HETATM   15  C   UNL     1     -10.655  16.127  68.213  1.00  0.00    -0.288 A  
BRANCH  13  16
HETATM   16  C   UNL     1      -9.679  19.783  67.615  1.00  0.00    -0.490 C  
BRANCH  16  17
HETATM   17  C   UNL     1      -8.265  20.086  67.122  1.00  0.00    -0.322 C  
HETATM   18  C   UNL     1      -7.181  19.207  67.718  1.00  0.00    -0.240 C  
HETATM   19  O   UNL     1      -6.159  19.197  66.708  1.00  0.00    -0.170 OA 
HETATM   20  C   UNL     1      -6.751  19.521  65.520  1.00  0.00    -0.283 C  
HETATM   21  N   UNL     1      -8.068  19.846  65.726  1.00  0.00    -0.351 NA 
HETATM   22  O   UNL     1      -6.183  19.560  64.443  1.00  0.00    -0.354 OA 
ENDBRANCH  16  17
ENDBRANCH  13  16
ENDBRANCH   5   6
ENDBRANCH   4   5
ENDBRANCH   2   4
TORSDOF 5
ENDMDL
MODEL      106
REMARK 921   NORMALIZED FREE ENERGY PREDICTED BY IDOCK:   -4.71 KCAL/MOL
REMARK 922        TOTAL FREE ENERGY PREDICTED BY IDOCK:   -6.52 KCAL/MOL
REMARK 923 INTER-LIGAND FREE ENERGY PREDICTED BY IDOCK:   -5.98 KCAL/MOL
REMARK 924 INTRA-LIGAND FREE ENERGY PREDICTED BY IDOCK:   -0.55 KCAL/MOL
REMARK 927      BINDING AFFINITY PREDICTED BY RF-SCORE:    0.00 PKD
ROOT
HETATM    1  C   UNL     1     -10.877   5.890  66.873  1.00  0.00    -0.296 C  
HETATM    2  N   UNL     1      -9.444   6.201  66.938  1.00  0.00    -0.131 NA 
HETATM    3  C   UNL     1      -9.255   7.650  66.865  1.00  0.00    -0.145 C  
ENDROOT
BRANCH   2   4
HETATM    4  C   UNL     1      -8.869   5.621  68.171  1.00  0.00    -0.108 C  
BRANCH   4   5
HETATM    5  C   UNL     1      -9.854   4.774  68.998  1.00  0.00    -0.239 C  
BRANCH   5   6
HETATM    6  C   UNL     1      -9.859   5.147  70.453  1.00  0.00    -0.288 A  
HETATM    7  C   UNL     1      -9.198   4.492  71.472  1.00  0.00    -0.135 A  
HETATM    8  N   UNL     1      -9.444   5.151  72.645  1.00  0.00    -0.140 NA 
HETATM    9  C   UNL     1     -10.258   6.236  72.418  1.00  0.00    -0.187 A  
HETATM   10  H   UNL     1      -9.078   4.877  73.556  1.00  0.00     0.000 HD 
HETATM   11  C   UNL     1     -10.754   7.194  73.308  1.00  0.00    -0.403 A  
HETATM   12  C   UNL     1     -11.576   8.202  72.790  1.00  0.00    -0.371 A  
HETATM   13  C   UNL     1     -11.899   8.253  71.428  1.00  0.00    -0.330 A  
HETATM   14  C   UNL     1     -11.365   7.289  70.556  1.00  0.00    -0.308 A  
HETATM   15  C   UNL     1     -10.539   6.258  71.053  1.00  0.00    -0.289 A  
BRANCH  13  16
HETATM   16  C   UNL     1     -12.805   9.343  70.900  1.00  0.00    -0.150 C  
BRANCH  16  17
HETATM   17  C   UNL     1     -12.428  10.735  71.406  1.00  0.00    -0.373 C  
HETATM   18  C   UNL     1     -12.000  11.711  70.326  1.00  0.00    -0.358 C  
HETATM   19  O   UNL     1     -12.335  12.994  70.877  1.00  0.00    -0.366 OA 
HETATM   20  C   UNL     1     -13.292  12.796  71.833  1.00  0.00    -0.413 C  
HETATM   21  N   UNL     1     -13.511  11.452  72.004  1.00  0.00    -0.320 NA 
HETATM   22  O   UNL     1     -13.837  13.678  72.470  1.00  0.00    -0.627 OA 
ENDBRANCH  16  17
ENDBRANCH  13  16
ENDBRANCH   5   6
ENDBRANCH   4   5
ENDBRANCH   2   4
TORSDOF 5
ENDMDL
MODEL      107
REMARK 921   NORMALIZED FREE ENERGY PREDICTED BY IDOCK:   -4.71 KCAL/MOL
REMARK 922        TOTAL FREE ENERGY PREDICTED BY IDOCK:   -6.52 KCAL/MOL
REMARK 923 INTER-LIGAND FREE ENERGY PREDICTED BY IDOCK:   -6.24 KCAL/MOL
REMARK 924 INTRA-LIGAND FREE ENERGY PREDICTED BY IDOCK:   -0.28 KCAL/MOL
REMARK 927      BINDING AFFINITY PREDICTED BY RF-SCORE:    0.00 PKD
ROOT
HETATM    1  C   UNL     1     -10.302  18.188  68.173  1.00  0.00    -0.379 C  
HETATM    2  N   UNL     1     -10.172  16.731  68.291  1.00  0.00    -0.279 NA 
HETATM    3  C   UNL     1     -11.109  16.236  69.301  1.00  0.00    -0.325 C  
ENDROOT
BRANCH   2   4
HETATM    4  C   UNL     1     -10.390  16.107  66.969  1.00  0.00    -0.290 C  
BRANCH   4   5
HETATM    5  C   UNL     1     -11.526  15.066  66.934  1.00  0.00    -0.266 C  
BRANCH   5   6
HETATM    6  C   UNL     1     -11.619  14.354  65.615  1.00  0.00    -0.347 A  
HETATM    7  C   UNL     1     -12.242  14.815  64.474  1.00  0.00    -0.428 A  
HETATM    8  N   UNL     1     -12.092  13.879  63.488  1.00  0.00    -0.969 NA 
HETATM    9  C   UNL     1     -11.376  12.804  63.958  1.00  0.00    -0.413 A  
HETATM   10  H   UNL     1     -12.460  13.966  62.541  1.00  0.00     0.000 HD 
HETATM   11  C   UNL     1     -10.974  11.633  63.307  1.00  0.00    -0.361 A  
HETATM   12  C   UNL     1     -10.245  10.695  64.047  1.00  0.00    -0.334 A  
HETATM   13  C   UNL     1      -9.927  10.911  65.393  1.00  0.00    -0.319 A  
HETATM   14  C   UNL     1     -10.325  12.110  66.011  1.00  0.00    -0.268 A  
HETATM   15  C   UNL     1     -11.067  13.071  65.291  1.00  0.00    -0.311 A  
BRANCH  13  16
HETATM   16  C   UNL     1      -9.154   9.871  66.172  1.00  0.00    -0.193 C  
BRANCH  16  17
HETATM   17  C   UNL     1      -8.102  10.476  67.102  1.00  0.00    -0.120 C  
HETATM   18  C   UNL     1      -7.054   9.499  67.598  1.00  0.00    -0.081 C  
HETATM   19  O   UNL     1      -5.909  10.328  67.850  1.00  0.00    -0.042 OA 
HETATM   20  C   UNL     1      -6.055  11.468  67.109  1.00  0.00    -0.115 C  
HETATM   21  N   UNL     1      -7.277  11.467  66.484  1.00  0.00    -0.101 NA 
HETATM   22  O   UNL     1      -5.242  12.373  67.049  1.00  0.00    -0.299 OA 
ENDBRANCH  16  17
ENDBRANCH  13  16
ENDBRANCH   5   6
ENDBRANCH   4   5
ENDBRANCH   2   4
TORSDOF 5
ENDMDL
MODEL      108
REMARK 921   NORMALIZED FREE ENERGY PREDICTED BY IDOCK:   -4.71 KCAL/MOL
REMARK 922        TOTAL FREE ENERGY PREDICTED BY IDOCK:   -6.52 KCAL/MOL
REMARK 923 INTER-LIGAND FREE ENERGY PREDICTED BY IDOCK:   -5.91 KCAL/MOL
REMARK 924 INTRA-LIGAND FREE ENERGY PREDICTED BY IDOCK:   -0.61 KCAL/MOL
REMARK 927      BINDING AFFINITY PREDICTED BY RF-SCORE:    0.00 PKD
ROOT
HETATM    1  C   UNL     1     -10.239   8.520  69.641  1.00  0.00    -0.209 C  
HETATM    2  N   UNL     1     -10.545   9.816  69.025  1.00  0.00    -0.213 NA 
HETATM    3  C   UNL     1     -11.648  10.452  69.747  1.00  0.00    -0.269 C  
ENDROOT
BRANCH   2   4
HETATM    4  C   UNL     1      -9.328  10.654  69.009  1.00  0.00    -0.180 C  
BRANCH   4   5
HETATM    5  C   UNL     1      -8.309  10.280  67.915  1.00  0.00    -0.114 C  
BRANCH   5   6
HETATM    6  C   UNL     1      -8.941  10.129  66.561  1.00  0.00    -0.161 A  
HETATM    7  C   UNL     1      -9.009   8.974  65.809  1.00  0.00    -0.197 A  
HETATM    8  N   UNL     1      -9.675   9.250  64.647  1.00  0.00    -0.264 NA 
HETATM    9  C   UNL     1     -10.053  10.571  64.619  1.00  0.00    -0.338 A  
HETATM   10  H   UNL     1      -9.864   8.573  63.909  1.00  0.00     0.000 HD 
HETATM   11  C   UNL     1     -10.759  11.287  63.646  1.00  0.00    -0.438 A  
HETATM   12  C   UNL     1     -11.004  12.644  63.885  1.00  0.00    -0.468 A  
HETATM   13  C   UNL     1     -10.556  13.273  65.053  1.00  0.00    -0.360 A  
HETATM   14  C   UNL     1      -9.869  12.519  66.022  1.00  0.00    -0.266 A  
HETATM   15  C   UNL     1      -9.604  11.151  65.803  1.00  0.00    -0.255 A  
BRANCH  13  16
HETATM   16  C   UNL     1     -10.818  14.745  65.276  1.00  0.00    -0.395 C  
BRANCH  16  17
HETATM   17  C   UNL     1     -10.054  15.318  66.469  1.00  0.00    -0.270 C  
HETATM   18  C   UNL     1      -9.023  16.374  66.118  1.00  0.00    -0.332 C  
HETATM   19  O   UNL     1      -8.942  17.177  67.306  1.00  0.00    -0.216 OA 
HETATM   20  C   UNL     1     -10.101  16.993  68.008  1.00  0.00    -0.305 C  
HETATM   21  N   UNL     1     -10.872  16.037  67.396  1.00  0.00    -0.307 NA 
HETATM   22  O   UNL     1     -10.387  17.560  69.047  1.00  0.00    -0.356 OA 
ENDBRANCH  16  17
ENDBRANCH  13  16
ENDBRANCH   5   6
ENDBRANCH   4   5
ENDBRANCH   2   4
TORSDOF 5
ENDMDL
MODEL      109
REMARK 921   NORMALIZED FREE ENERGY PREDICTED BY IDOCK:   -4.70 KCAL/MOL
REMARK 922        TOTAL FREE ENERGY PREDICTED BY IDOCK:   -6.51 KCAL/MOL
REMARK 923 INTER-LIGAND FREE ENERGY PREDICTED BY IDOCK:   -6.00 KCAL/MOL
REMARK 924 INTRA-LIGAND FREE ENERGY PREDICTED BY IDOCK:   -0.52 KCAL/MOL
REMARK 927      BINDING AFFINITY PREDICTED BY RF-SCORE:    0.00 PKD
ROOT
HETATM    1  C   UNL     1     -10.588  16.216  65.421  1.00  0.00    -0.380 C  
HETATM    2  N   UNL     1     -10.528  15.001  66.242  1.00  0.00    -0.294 NA 
HETATM    3  C   UNL     1      -9.685  15.243  67.413  1.00  0.00    -0.208 C  
ENDROOT
BRANCH   2   4
HETATM    4  C   UNL     1     -11.899  14.589  66.613  1.00  0.00    -0.366 C  
BRANCH   4   5
HETATM    5  C   UNL     1     -12.649  13.808  65.517  1.00  0.00    -0.551 C  
BRANCH   5   6
HETATM    6  C   UNL     1     -11.788  12.777  64.846  1.00  0.00    -0.424 A  
HETATM    7  C   UNL     1     -11.452  12.730  63.508  1.00  0.00    -0.459 A  
HETATM    8  N   UNL     1     -10.643  11.647  63.301  1.00  0.00    -0.619 NA 
HETATM    9  C   UNL     1     -10.434  10.977  64.483  1.00  0.00    -0.342 A  
HETATM   10  H   UNL     1     -10.251  11.377  62.399  1.00  0.00     0.000 HD 
HETATM   11  C   UNL     1      -9.672   9.834  64.750  1.00  0.00    -0.213 A  
HETATM   12  C   UNL     1      -9.643   9.365  66.068  1.00  0.00    -0.328 A  
HETATM   13  C   UNL     1     -10.354  10.007  67.089  1.00  0.00    -0.300 A  
HETATM   14  C   UNL     1     -11.091  11.167  66.792  1.00  0.00    -0.280 A  
HETATM   15  C   UNL     1     -11.142  11.659  65.470  1.00  0.00    -0.297 A  
BRANCH  13  16
HETATM   16  C   UNL     1     -10.319   9.465  68.501  1.00  0.00    -0.236 C  
BRANCH  16  17
HETATM   17  C   UNL     1      -8.905   9.153  68.989  1.00  0.00    -0.139 C  
HETATM   18  C   UNL     1      -8.145  10.345  69.542  1.00  0.00    -0.136 C  
HETATM   19  O   UNL     1      -7.226   9.757  70.476  1.00  0.00    -0.138 OA 
HETATM   20  C   UNL     1      -7.728   8.537  70.836  1.00  0.00    -0.090 C  
HETATM   21  N   UNL     1      -8.856   8.261  70.105  1.00  0.00    -0.139 NA 
HETATM   22  O   UNL     1      -7.223   7.786  71.651  1.00  0.00    -0.061 OA 
ENDBRANCH  16  17
ENDBRANCH  13  16
ENDBRANCH   5   6
ENDBRANCH   4   5
ENDBRANCH   2   4
TORSDOF 5
ENDMDL
MODEL      110
REMARK 921   NORMALIZED FREE ENERGY PREDICTED BY IDOCK:   -4.70 KCAL/MOL
REMARK 922        TOTAL FREE ENERGY PREDICTED BY IDOCK:   -6.51 KCAL/MOL
REMARK 923 INTER-LIGAND FREE ENERGY PREDICTED BY IDOCK:   -6.11 KCAL/MOL
REMARK 924 INTRA-LIGAND FREE ENERGY PREDICTED BY IDOCK:   -0.40 KCAL/MOL
REMARK 927      BINDING AFFINITY PREDICTED BY RF-SCORE:    0.00 PKD
ROOT
HETATM    1  C   UNL     1      -9.126   5.377  65.713  1.00  0.00    -0.154 C  
HETATM    2  N   UNL     1      -7.987   6.233  66.062  1.00  0.00    -0.109 NA 
HETATM    3  C   UNL     1      -6.814   5.827  65.285  1.00  0.00    -0.051 C  
ENDROOT
BRANCH   2   4
HETATM    4  C   UNL     1      -8.347   7.649  65.837  1.00  0.00    -0.139 C  
BRANCH   4   5
HETATM    5  C   UNL     1      -7.614   8.648  66.753  1.00  0.00    -0.086 C  
BRANCH   5   6
HETATM    6  C   UNL     1      -8.468   9.123  67.893  1.00  0.00    -0.117 A  
HETATM    7  C   UNL     1      -8.351   8.754  69.217  1.00  0.00    -0.120 A  
HETATM    8  N   UNL     1      -9.304   9.418  69.940  1.00  0.00    -0.198 NA 
HETATM    9  C   UNL     1     -10.049  10.225  69.113  1.00  0.00    -0.218 A  
HETATM   10  H   UNL     1      -9.442   9.327  70.946  1.00  0.00     0.000 HD 
HETATM   11  C   UNL     1     -11.110  11.087  69.411  1.00  0.00    -0.320 A  
HETATM   12  C   UNL     1     -11.691  11.794  68.352  1.00  0.00    -0.389 A  
HETATM   13  C   UNL     1     -11.236  11.646  67.036  1.00  0.00    -0.376 A  
HETATM   14  C   UNL     1     -10.152  10.790  66.774  1.00  0.00    -0.267 A  
HETATM   15  C   UNL     1      -9.551  10.060  67.823  1.00  0.00    -0.168 A  
BRANCH  13  16
HETATM   16  C   UNL     1     -11.896  12.408  65.910  1.00  0.00    -0.467 C  
BRANCH  16  17
HETATM   17  C   UNL     1     -11.527  13.891  65.892  1.00  0.00    -0.325 C  
HETATM   18  C   UNL     1     -10.047  14.177  65.716  1.00  0.00    -0.333 C  
HETATM   19  O   UNL     1     -10.024  15.472  65.094  1.00  0.00    -0.316 OA 
HETATM   20  C   UNL     1     -11.237  15.663  64.494  1.00  0.00    -0.325 C  
HETATM   21  N   UNL     1     -12.074  14.617  64.787  1.00  0.00    -0.431 NA 
HETATM   22  O   UNL     1     -11.545  16.639  63.834  1.00  0.00    -1.204 OA 
ENDBRANCH  16  17
ENDBRANCH  13  16
ENDBRANCH   5   6
ENDBRANCH   4   5
ENDBRANCH   2   4
TORSDOF 5
ENDMDL
MODEL      111
REMARK 921   NORMALIZED FREE ENERGY PREDICTED BY IDOCK:   -4.69 KCAL/MOL
REMARK 922        TOTAL FREE ENERGY PREDICTED BY IDOCK:   -6.50 KCAL/MOL
REMARK 923 INTER-LIGAND FREE ENERGY PREDICTED BY IDOCK:   -5.97 KCAL/MOL
REMARK 924 INTRA-LIGAND FREE ENERGY PREDICTED BY IDOCK:   -0.54 KCAL/MOL
REMARK 927      BINDING AFFINITY PREDICTED BY RF-SCORE:    0.00 PKD
ROOT
HETATM    1  C   UNL     1     -13.045  13.734  65.451  1.00  0.00    -0.164 C  
HETATM    2  N   UNL     1     -11.805  13.519  64.697  1.00  0.00    -0.376 NA 
HETATM    3  C   UNL     1     -12.122  12.962  63.381  1.00  0.00    -0.530 C  
ENDROOT
BRANCH   2   4
HETATM    4  C   UNL     1     -11.059  14.793  64.602  1.00  0.00    -0.325 C  
BRANCH   4   5
HETATM    5  C   UNL     1     -10.692  15.420  65.960  1.00  0.00    -0.326 C  
BRANCH   5   6
HETATM    6  C   UNL     1      -9.434  14.843  66.545  1.00  0.00    -0.307 A  
HETATM    7  C   UNL     1      -8.169  15.389  66.476  1.00  0.00    -0.066 A  
HETATM    8  N   UNL     1      -7.304  14.567  67.143  1.00  0.00    -0.320 NA 
HETATM    9  C   UNL     1      -7.978  13.484  67.657  1.00  0.00    -0.176 A  
HETATM   10  H   UNL     1      -6.303  14.733  67.245  1.00  0.00     0.000 HD 
HETATM   11  C   UNL     1      -7.508  12.405  68.413  1.00  0.00    -0.123 A  
HETATM   12  C   UNL     1      -8.435  11.431  68.802  1.00  0.00    -0.089 A  
HETATM   13  C   UNL     1      -9.786  11.523  68.446  1.00  0.00    -0.204 A  
HETATM   14  C   UNL     1     -10.230  12.633  67.706  1.00  0.00    -0.222 A  
HETATM   15  C   UNL     1      -9.316  13.626  67.295  1.00  0.00    -0.233 A  
BRANCH  13  16
HETATM   16  C   UNL     1     -10.761  10.446  68.866  1.00  0.00    -0.255 C  
BRANCH  16  17
HETATM   17  C   UNL     1     -11.212  10.577  70.320  1.00  0.00    -0.313 C  
HETATM   18  C   UNL     1     -12.316  11.590  70.555  1.00  0.00    -0.342 C  
HETATM   19  O   UNL     1     -12.987  11.096  71.725  1.00  0.00    -0.451 OA 
HETATM   20  C   UNL     1     -12.709   9.761  71.826  1.00  0.00    -0.426 C  
HETATM   21  N   UNL     1     -11.814   9.394  70.854  1.00  0.00    -0.290 NA 
HETATM   22  O   UNL     1     -13.156   9.016  72.680  1.00  0.00    -0.426 OA 
ENDBRANCH  16  17
ENDBRANCH  13  16
ENDBRANCH   5   6
ENDBRANCH   4   5
ENDBRANCH   2   4
TORSDOF 5
ENDMDL
MODEL      112
REMARK 921   NORMALIZED FREE ENERGY PREDICTED BY IDOCK:   -4.68 KCAL/MOL
REMARK 922        TOTAL FREE ENERGY PREDICTED BY IDOCK:   -6.49 KCAL/MOL
REMARK 923 INTER-LIGAND FREE ENERGY PREDICTED BY IDOCK:   -6.17 KCAL/MOL
REMARK 924 INTRA-LIGAND FREE ENERGY PREDICTED BY IDOCK:   -0.32 KCAL/MOL
REMARK 927      BINDING AFFINITY PREDICTED BY RF-SCORE:    0.00 PKD
ROOT
HETATM    1  C   UNL     1     -11.410  16.128  64.446  1.00  0.00    -0.201 C  
HETATM    2  N   UNL     1     -10.747  15.160  65.327  1.00  0.00    -0.374 NA 
HETATM    3  C   UNL     1      -9.595  15.794  65.971  1.00  0.00    -0.353 C  
ENDROOT
BRANCH   2   4
HETATM    4  C   UNL     1     -11.722  14.637  66.308  1.00  0.00    -0.320 C  
BRANCH   4   5
HETATM    5  C   UNL     1     -12.646  13.533  65.763  1.00  0.00    -0.490 C  
BRANCH   5   6
HETATM    6  C   UNL     1     -11.924  12.553  64.883  1.00  0.00    -0.468 A  
HETATM    7  C   UNL     1     -12.096  12.384  63.525  1.00  0.00    -0.558 A  
HETATM    8  N   UNL     1     -11.243  11.405  63.096  1.00  0.00    -0.854 NA 
HETATM    9  C   UNL     1     -10.505  10.923  64.151  1.00  0.00    -0.327 A  
HETATM   10  H   UNL     1     -11.166  11.079  62.133  1.00  0.00     0.000 HD 
HETATM   11  C   UNL     1      -9.512   9.938  64.183  1.00  0.00    -0.254 A  
HETATM   12  C   UNL     1      -8.924   9.646  65.418  1.00  0.00    -0.231 A  
HETATM   13  C   UNL     1      -9.313  10.308  66.589  1.00  0.00    -0.192 A  
HETATM   14  C   UNL     1     -10.297  11.310  66.519  1.00  0.00    -0.284 A  
HETATM   15  C   UNL     1     -10.912  11.621  65.287  1.00  0.00    -0.327 A  
BRANCH  13  16
HETATM   16  C   UNL     1      -8.673   9.958  67.913  1.00  0.00    -0.129 C  
BRANCH  16  17
HETATM   17  C   UNL     1      -7.640  10.987  68.372  1.00  0.00    -0.108 C  
HETATM   18  C   UNL     1      -6.224  10.458  68.492  1.00  0.00    -0.047 C  
HETATM   19  O   UNL     1      -5.408  11.621  68.276  1.00  0.00    -0.043 OA 
HETATM   20  C   UNL     1      -6.164  12.534  67.595  1.00  0.00    -0.141 C  
HETATM   21  N   UNL     1      -7.448  12.070  67.457  1.00  0.00    -0.130 NA 
HETATM   22  O   UNL     1      -5.769  13.619  67.207  1.00  0.00    -0.337 OA 
ENDBRANCH  16  17
ENDBRANCH  13  16
ENDBRANCH   5   6
ENDBRANCH   4   5
ENDBRANCH   2   4
TORSDOF 5
ENDMDL
MODEL      113
REMARK 921   NORMALIZED FREE ENERGY PREDICTED BY IDOCK:   -4.68 KCAL/MOL
REMARK 922        TOTAL FREE ENERGY PREDICTED BY IDOCK:   -6.49 KCAL/MOL
REMARK 923 INTER-LIGAND FREE ENERGY PREDICTED BY IDOCK:   -6.28 KCAL/MOL
REMARK 924 INTRA-LIGAND FREE ENERGY PREDICTED BY IDOCK:   -0.20 KCAL/MOL
REMARK 927      BINDING AFFINITY PREDICTED BY RF-SCORE:    0.00 PKD
ROOT
HETATM    1  C   UNL     1     -12.115  14.267  71.148  1.00  0.00    -0.336 C  
HETATM    2  N   UNL     1     -13.233  14.060  72.076  1.00  0.00    -0.380 NA 
HETATM    3  C   UNL     1     -14.396  14.821  71.619  1.00  0.00    -0.557 C  
ENDROOT
BRANCH   2   4
HETATM    4  C   UNL     1     -13.518  12.613  72.190  1.00  0.00    -0.460 C  
BRANCH   4   5
HETATM    5  C   UNL     1     -12.619  11.716  71.318  1.00  0.00    -0.425 C  
BRANCH   5   6
HETATM    6  C   UNL     1     -12.635  10.279  71.756  1.00  0.00    -0.488 A  
HETATM    7  C   UNL     1     -13.644   9.641  72.446  1.00  0.00    -0.314 A  
HETATM    8  N   UNL     1     -13.282   8.337  72.640  1.00  0.00    -0.592 NA 
HETATM    9  C   UNL     1     -12.047   8.099  72.085  1.00  0.00    -0.357 A  
HETATM   10  H   UNL     1     -13.846   7.641  73.127  1.00  0.00     0.000 HD 
HETATM   11  C   UNL     1     -11.293   6.922  72.029  1.00  0.00    -0.301 A  
HETATM   12  C   UNL     1     -10.049   6.976  71.392  1.00  0.00    -0.197 A  
HETATM   13  C   UNL     1      -9.564   8.163  70.831  1.00  0.00    -0.187 A  
HETATM   14  C   UNL     1     -10.357   9.324  70.883  1.00  0.00    -0.367 A  
HETATM   15  C   UNL     1     -11.613   9.300  71.525  1.00  0.00    -0.452 A  
BRANCH  13  16
HETATM   16  C   UNL     1      -8.207   8.195  70.166  1.00  0.00    -0.119 C  
BRANCH  16  17
HETATM   17  C   UNL     1      -8.159   7.403  68.860  1.00  0.00    -0.127 C  
HETATM   18  C   UNL     1      -7.657   5.978  68.997  1.00  0.00    -0.091 C  
HETATM   19  O   UNL     1      -8.290   5.289  67.907  1.00  0.00    -0.099 OA 
HETATM   20  C   UNL     1      -9.391   6.013  67.546  1.00  0.00    -0.113 C  
HETATM   21  N   UNL     1      -9.440   7.181  68.264  1.00  0.00    -0.133 NA 
HETATM   22  O   UNL     1     -10.186   5.692  66.681  1.00  0.00    -0.188 OA 
ENDBRANCH  16  17
ENDBRANCH  13  16
ENDBRANCH   5   6
ENDBRANCH   4   5
ENDBRANCH   2   4
TORSDOF 5
ENDMDL
MODEL      114
REMARK 921   NORMALIZED FREE ENERGY PREDICTED BY IDOCK:   -4.65 KCAL/MOL
REMARK 922        TOTAL FREE ENERGY PREDICTED BY IDOCK:   -6.45 KCAL/MOL
REMARK 923 INTER-LIGAND FREE ENERGY PREDICTED BY IDOCK:   -6.02 KCAL/MOL
REMARK 924 INTRA-LIGAND FREE ENERGY PREDICTED BY IDOCK:   -0.42 KCAL/MOL
REMARK 927      BINDING AFFINITY PREDICTED BY RF-SCORE:    0.00 PKD
ROOT
HETATM    1  C   UNL     1     -11.295  14.117  65.229  1.00  0.00    -0.328 C  
HETATM    2  N   UNL     1     -11.863  13.501  66.434  1.00  0.00    -0.372 NA 
HETATM    3  C   UNL     1     -11.856  12.045  66.289  1.00  0.00    -0.148 C  
ENDROOT
BRANCH   2   4
HETATM    4  C   UNL     1     -11.105  13.950  67.622  1.00  0.00    -0.277 C  
BRANCH   4   5
HETATM    5  C   UNL     1     -10.718  12.822  68.596  1.00  0.00    -0.273 C  
BRANCH   5   6
HETATM    6  C   UNL     1     -11.674  12.696  69.748  1.00  0.00    -0.354 A  
HETATM    7  C   UNL     1     -12.390  13.718  70.337  1.00  0.00    -0.353 A  
HETATM    8  N   UNL     1     -13.155  13.190  71.340  1.00  0.00    -0.310 NA 
HETATM    9  C   UNL     1     -12.959  11.832  71.423  1.00  0.00    -0.306 A  
HETATM   10  H   UNL     1     -13.781  13.726  71.941  1.00  0.00     0.000 HD 
HETATM   11  C   UNL     1     -13.532  10.887  72.281  1.00  0.00    -0.049 A  
HETATM   12  C   UNL     1     -13.137   9.552  72.138  1.00  0.00    -0.522 A  
HETATM   13  C   UNL     1     -12.195   9.168  71.175  1.00  0.00    -0.350 A  
HETATM   14  C   UNL     1     -11.655  10.138  70.313  1.00  0.00    -0.379 A  
HETATM   15  C   UNL     1     -12.032  11.492  70.439  1.00  0.00    -0.459 A  
BRANCH  13  16
HETATM   16  C   UNL     1     -11.773   7.721  71.057  1.00  0.00    -0.299 C  
BRANCH  16  17
HETATM   17  C   UNL     1     -10.898   7.448  69.834  1.00  0.00    -0.246 C  
HETATM   18  C   UNL     1      -9.417   7.304  70.130  1.00  0.00    -0.165 C  
HETATM   19  O   UNL     1      -8.941   6.455  69.073  1.00  0.00    -0.128 OA 
HETATM   20  C   UNL     1     -10.015   5.765  68.584  1.00  0.00    -0.155 C  
HETATM   21  N   UNL     1     -11.167   6.201  69.188  1.00  0.00    -0.392 NA 
HETATM   22  O   UNL     1      -9.964   4.920  67.708  1.00  0.00    -0.161 OA 
ENDBRANCH  16  17
ENDBRANCH  13  16
ENDBRANCH   5   6
ENDBRANCH   4   5
ENDBRANCH   2   4
TORSDOF 5
ENDMDL
MODEL      115
REMARK 921   NORMALIZED FREE ENERGY PREDICTED BY IDOCK:   -4.62 KCAL/MOL
REMARK 922        TOTAL FREE ENERGY PREDICTED BY IDOCK:   -6.41 KCAL/MOL
REMARK 923 INTER-LIGAND FREE ENERGY PREDICTED BY IDOCK:   -6.03 KCAL/MOL
REMARK 924 INTRA-LIGAND FREE ENERGY PREDICTED BY IDOCK:   -0.38 KCAL/MOL
REMARK 927      BINDING AFFINITY PREDICTED BY RF-SCORE:    0.00 PKD
ROOT
HETATM    1  C   UNL     1     -10.631  16.862  67.072  1.00  0.00    -0.230 C  
HETATM    2  N   UNL     1     -10.840  15.431  66.824  1.00  0.00    -0.312 NA 
HETATM    3  C   UNL     1     -11.592  14.846  67.935  1.00  0.00    -0.344 C  
ENDROOT
BRANCH   2   4
HETATM    4  C   UNL     1     -11.525  15.250  65.526  1.00  0.00    -0.152 C  
BRANCH   4   5
HETATM    5  C   UNL     1     -12.477  14.041  65.469  1.00  0.00    -0.533 C  
BRANCH   5   6
HETATM    6  C   UNL     1     -11.922  12.904  64.658  1.00  0.00    -0.445 A  
HETATM    7  C   UNL     1     -12.382  12.467  63.433  1.00  0.00    -0.499 A  
HETATM    8  N   UNL     1     -11.602  11.421  63.023  1.00  0.00    -0.853 NA 
HETATM    9  C   UNL     1     -10.628  11.160  63.959  1.00  0.00    -0.368 A  
HETATM   10  H   UNL     1     -11.724  10.909  62.151  1.00  0.00     0.000 HD 
HETATM   11  C   UNL     1      -9.610  10.201  63.958  1.00  0.00    -0.320 A  
HETATM   12  C   UNL     1      -8.751  10.163  65.062  1.00  0.00    -0.190 A  
HETATM   13  C   UNL     1      -8.903  11.046  66.138  1.00  0.00    -0.197 A  
HETATM   14  C   UNL     1      -9.922  12.014  66.097  1.00  0.00    -0.254 A  
HETATM   15  C   UNL     1     -10.806  12.071  64.998  1.00  0.00    -0.351 A  
BRANCH  13  16
HETATM   16  C   UNL     1      -7.971  10.968  67.326  1.00  0.00    -0.126 C  
BRANCH  16  17
HETATM   17  C   UNL     1      -8.389   9.913  68.349  1.00  0.00    -0.107 C  
HETATM   18  C   UNL     1      -9.849   9.967  68.759  1.00  0.00    -0.171 C  
HETATM   19  O   UNL     1     -10.145   8.613  69.137  1.00  0.00    -0.188 OA 
HETATM   20  C   UNL     1      -9.225   7.805  68.530  1.00  0.00    -0.137 C  
HETATM   21  N   UNL     1      -8.292   8.567  67.874  1.00  0.00    -0.125 NA 
HETATM   22  O   UNL     1      -9.210   6.589  68.597  1.00  0.00    -0.128 OA 
ENDBRANCH  16  17
ENDBRANCH  13  16
ENDBRANCH   5   6
ENDBRANCH   4   5
ENDBRANCH   2   4
TORSDOF 5
ENDMDL
MODEL      116
REMARK 921   NORMALIZED FREE ENERGY PREDICTED BY IDOCK:   -4.61 KCAL/MOL
REMARK 922        TOTAL FREE ENERGY PREDICTED BY IDOCK:   -6.40 KCAL/MOL
REMARK 923 INTER-LIGAND FREE ENERGY PREDICTED BY IDOCK:   -6.07 KCAL/MOL
REMARK 924 INTRA-LIGAND FREE ENERGY PREDICTED BY IDOCK:   -0.33 KCAL/MOL
REMARK 927      BINDING AFFINITY PREDICTED BY RF-SCORE:    0.00 PKD
ROOT
HETATM    1  C   UNL     1     -11.844  12.482  68.062  1.00  0.00    -0.325 C  
HETATM    2  N   UNL     1     -12.206  13.894  68.236  1.00  0.00    -0.266 NA 
HETATM    3  C   UNL     1     -11.956  14.296  69.621  1.00  0.00    -0.336 C  
ENDROOT
BRANCH   2   4
HETATM    4  C   UNL     1     -11.454  14.719  67.267  1.00  0.00    -0.366 C  
BRANCH   4   5
HETATM    5  C   UNL     1     -10.396  13.947  66.456  1.00  0.00    -0.286 C  
BRANCH   5   6
HETATM    6  C   UNL     1      -9.003  14.144  66.982  1.00  0.00    -0.251 A  
HETATM    7  C   UNL     1      -8.241  13.215  67.659  1.00  0.00    -0.175 A  
HETATM    8  N   UNL     1      -7.029  13.778  67.953  1.00  0.00    -0.136 NA 
HETATM    9  C   UNL     1      -6.976  15.066  67.476  1.00  0.00    -0.186 A  
HETATM   10  H   UNL     1      -6.275  13.309  68.453  1.00  0.00     0.000 HD 
HETATM   11  C   UNL     1      -5.943  16.007  67.533  1.00  0.00    -0.181 A  
HETATM   12  C   UNL     1      -6.173  17.262  66.958  1.00  0.00    -0.203 A  
HETATM   13  C   UNL     1      -7.394  17.575  66.349  1.00  0.00    -0.334 A  
HETATM   14  C   UNL     1      -8.404  16.598  66.287  1.00  0.00    -0.360 A  
HETATM   15  C   UNL     1      -8.201  15.327  66.865  1.00  0.00    -0.263 A  
BRANCH  13  16
HETATM   16  C   UNL     1      -7.620  18.946  65.752  1.00  0.00    -0.111 C  
BRANCH  16  17
HETATM   17  C   UNL     1      -8.645  19.776  66.524  1.00  0.00    -0.354 C  
HETATM   18  C   UNL     1     -10.092  19.500  66.159  1.00  0.00    -0.469 C  
HETATM   19  O   UNL     1     -10.813  19.834  67.356  1.00  0.00    -0.424 OA 
HETATM   20  C   UNL     1      -9.932  19.765  68.400  1.00  0.00    -0.439 C  
HETATM   21  N   UNL     1      -8.668  19.516  67.930  1.00  0.00    -0.313 NA 
HETATM   22  O   UNL     1     -10.220  19.944  69.570  1.00  0.00    -0.292 OA 
ENDBRANCH  16  17
ENDBRANCH  13  16
ENDBRANCH   5   6
ENDBRANCH   4   5
ENDBRANCH   2   4
TORSDOF 5
ENDMDL
MODEL      117
REMARK 921   NORMALIZED FREE ENERGY PREDICTED BY IDOCK:   -4.61 KCAL/MOL
REMARK 922        TOTAL FREE ENERGY PREDICTED BY IDOCK:   -6.40 KCAL/MOL
REMARK 923 INTER-LIGAND FREE ENERGY PREDICTED BY IDOCK:   -5.98 KCAL/MOL
REMARK 924 INTRA-LIGAND FREE ENERGY PREDICTED BY IDOCK:   -0.42 KCAL/MOL
REMARK 927      BINDING AFFINITY PREDICTED BY RF-SCORE:    0.00 PKD
ROOT
HETATM    1  C   UNL     1     -12.506  12.132  63.649  1.00  0.00    -0.549 C  
HETATM    2  N   UNL     1     -11.777  13.214  64.321  1.00  0.00    -0.373 NA 
HETATM    3  C   UNL     1     -12.657  13.868  65.290  1.00  0.00    -0.478 C  
ENDROOT
BRANCH   2   4
HETATM    4  C   UNL     1     -10.555  12.669  64.950  1.00  0.00    -0.307 C  
BRANCH   4   5
HETATM    5  C   UNL     1     -10.782  11.399  65.791  1.00  0.00    -0.309 C  
BRANCH   5   6
HETATM    6  C   UNL     1      -9.795  10.310  65.478  1.00  0.00    -0.347 A  
HETATM    7  C   UNL     1      -8.759  10.377  64.569  1.00  0.00    -0.194 A  
HETATM    8  N   UNL     1      -8.086   9.187  64.589  1.00  0.00    -0.128 NA 
HETATM    9  C   UNL     1      -8.659   8.333  65.501  1.00  0.00    -0.159 A  
HETATM   10  H   UNL     1      -7.276   8.966  64.011  1.00  0.00     0.000 HD 
HETATM   11  C   UNL     1      -8.302   7.030  65.865  1.00  0.00    -0.141 A  
HETATM   12  C   UNL     1      -9.081   6.389  66.836  1.00  0.00    -0.138 A  
HETATM   13  C   UNL     1     -10.183   7.021  67.424  1.00  0.00    -0.278 A  
HETATM   14  C   UNL     1     -10.501   8.339  67.053  1.00  0.00    -0.384 A  
HETATM   15  C   UNL     1      -9.736   9.007  66.072  1.00  0.00    -0.339 A  
BRANCH  13  16
HETATM   16  C   UNL     1     -11.017   6.296  68.456  1.00  0.00    -0.421 C  
BRANCH  16  17
HETATM   17  C   UNL     1     -10.573   6.577  69.891  1.00  0.00    -0.233 C  
HETATM   18  C   UNL     1     -11.427   7.588  70.635  1.00  0.00    -0.269 C  
HETATM   19  O   UNL     1     -11.273   7.212  72.013  1.00  0.00    -0.239 OA 
HETATM   20  C   UNL     1     -10.882   5.902  72.042  1.00  0.00    -0.252 C  
HETATM   21  N   UNL     1     -10.669   5.449  70.765  1.00  0.00    -0.224 NA 
HETATM   22  O   UNL     1     -10.705   5.248  73.053  1.00  0.00    -0.215 OA 
ENDBRANCH  16  17
ENDBRANCH  13  16
ENDBRANCH   5   6
ENDBRANCH   4   5
ENDBRANCH   2   4
TORSDOF 5
ENDMDL
MODEL      118
REMARK 921   NORMALIZED FREE ENERGY PREDICTED BY IDOCK:   -4.60 KCAL/MOL
REMARK 922        TOTAL FREE ENERGY PREDICTED BY IDOCK:   -6.39 KCAL/MOL
REMARK 923 INTER-LIGAND FREE ENERGY PREDICTED BY IDOCK:   -6.14 KCAL/MOL
REMARK 924 INTRA-LIGAND FREE ENERGY PREDICTED BY IDOCK:   -0.25 KCAL/MOL
REMARK 927      BINDING AFFINITY PREDICTED BY RF-SCORE:    0.00 PKD
ROOT
HETATM    1  C   UNL     1      -8.132  19.133  68.721  1.00  0.00    -0.349 C  
HETATM    2  N   UNL     1      -7.420  18.154  67.893  1.00  0.00    -0.223 NA 
HETATM    3  C   UNL     1      -6.968  17.042  68.730  1.00  0.00    -0.211 C  
ENDROOT
BRANCH   2   4
HETATM    4  C   UNL     1      -8.300  17.706  66.792  1.00  0.00    -0.251 C  
BRANCH   4   5
HETATM    5  C   UNL     1      -8.400  16.177  66.637  1.00  0.00    -0.321 C  
BRANCH   5   6
HETATM    6  C   UNL     1      -9.764  15.648  66.978  1.00  0.00    -0.234 A  
HETATM    7  C   UNL     1     -10.534  15.999  68.068  1.00  0.00    -0.275 A  
HETATM    8  N   UNL     1     -11.712  15.307  68.010  1.00  0.00    -0.405 NA 
HETATM    9  C   UNL     1     -11.736  14.503  66.895  1.00  0.00    -0.382 A  
HETATM   10  H   UNL     1     -12.463  15.376  68.695  1.00  0.00     0.000 HD 
HETATM   11  C   UNL     1     -12.731  13.639  66.427  1.00  0.00    -0.137 A  
HETATM   12  C   UNL     1     -12.478  12.934  65.245  1.00  0.00    -0.552 A  
HETATM   13  C   UNL     1     -11.270  13.078  64.551  1.00  0.00    -0.372 A  
HETATM   14  C   UNL     1     -10.300  13.973  65.036  1.00  0.00    -0.432 A  
HETATM   15  C   UNL     1     -10.527  14.692  66.229  1.00  0.00    -0.302 A  
BRANCH  13  16
HETATM   16  C   UNL     1     -11.017  12.288  63.287  1.00  0.00    -0.373 C  
BRANCH  16  17
HETATM   17  C   UNL     1     -10.212  11.011  63.527  1.00  0.00    -0.365 C  
HETATM   18  C   UNL     1      -9.052  10.801  62.572  1.00  0.00    -0.312 C  
HETATM   19  O   UNL     1      -8.126  10.009  63.332  1.00  0.00    -0.144 OA 
HETATM   20  C   UNL     1      -8.412  10.197  64.656  1.00  0.00    -0.173 C  
HETATM   21  N   UNL     1      -9.534  10.976  64.786  1.00  0.00    -0.223 NA 
HETATM   22  O   UNL     1      -7.790   9.709  65.582  1.00  0.00    -0.102 OA 
ENDBRANCH  16  17
ENDBRANCH  13  16
ENDBRANCH   5   6
ENDBRANCH   4   5
ENDBRANCH   2   4
TORSDOF 5
ENDMDL
MODEL      119
REMARK 921   NORMALIZED FREE ENERGY PREDICTED BY IDOCK:   -4.60 KCAL/MOL
REMARK 922        TOTAL FREE ENERGY PREDICTED BY IDOCK:   -6.38 KCAL/MOL
REMARK 923 INTER-LIGAND FREE ENERGY PREDICTED BY IDOCK:   -6.14 KCAL/MOL
REMARK 924 INTRA-LIGAND FREE ENERGY PREDICTED BY IDOCK:   -0.24 KCAL/MOL
REMARK 927      BINDING AFFINITY PREDICTED BY RF-SCORE:    0.00 PKD
ROOT
HETATM    1  C   UNL     1      -6.312  20.056  67.650  1.00  0.00    -0.216 C  
HETATM    2  N   UNL     1      -6.844  20.342  66.312  1.00  0.00    -0.233 NA 
HETATM    3  C   UNL     1      -5.922  19.825  65.299  1.00  0.00    -0.212 C  
ENDROOT
BRANCH   2   4
HETATM    4  C   UNL     1      -8.198  19.763  66.186  1.00  0.00    -0.344 C  
BRANCH   4   5
HETATM    5  C   UNL     1      -8.257  18.233  66.355  1.00  0.00    -0.276 C  
BRANCH   5   6
HETATM    6  C   UNL     1      -9.251  17.801  67.396  1.00  0.00    -0.248 A  
HETATM    7  C   UNL     1      -9.565  18.471  68.560  1.00  0.00    -0.358 A  
HETATM    8  N   UNL     1     -10.524  17.758  69.226  1.00  0.00    -0.382 NA 
HETATM    9  C   UNL     1     -10.853  16.627  68.518  1.00  0.00    -0.356 A  
HETATM   10  H   UNL     1     -10.936  18.028  70.119  1.00  0.00     0.000 HD 
HETATM   11  C   UNL     1     -11.782  15.621  68.804  1.00  0.00    -0.382 A  
HETATM   12  C   UNL     1     -11.906  14.569  67.889  1.00  0.00    -0.370 A  
HETATM   13  C   UNL     1     -11.126  14.515  66.727  1.00  0.00    -0.325 A  
HETATM   14  C   UNL     1     -10.217  15.554  66.457  1.00  0.00    -0.291 A  
HETATM   15  C   UNL     1     -10.068  16.623  67.366  1.00  0.00    -0.274 A  
BRANCH  13  16
HETATM   16  C   UNL     1     -11.267  13.356  65.767  1.00  0.00    -0.305 C  
BRANCH  16  17
HETATM   17  C   UNL     1     -10.713  12.044  66.322  1.00  0.00    -0.267 C  
HETATM   18  C   UNL     1      -9.481  12.192  67.194  1.00  0.00    -0.190 C  
HETATM   19  O   UNL     1      -9.547  11.056  68.070  1.00  0.00    -0.161 OA 
HETATM   20  C   UNL     1     -10.848  10.638  68.105  1.00  0.00    -0.245 C  
HETATM   21  N   UNL     1     -11.599  11.369  67.219  1.00  0.00    -0.560 NA 
HETATM   22  O   UNL     1     -11.271   9.722  68.788  1.00  0.00    -0.144 OA 
ENDBRANCH  16  17
ENDBRANCH  13  16
ENDBRANCH   5   6
ENDBRANCH   4   5
ENDBRANCH   2   4
TORSDOF 5
ENDMDL
MODEL      120
REMARK 921   NORMALIZED FREE ENERGY PREDICTED BY IDOCK:   -4.60 KCAL/MOL
REMARK 922        TOTAL FREE ENERGY PREDICTED BY IDOCK:   -6.38 KCAL/MOL
REMARK 923 INTER-LIGAND FREE ENERGY PREDICTED BY IDOCK:   -5.98 KCAL/MOL
REMARK 924 INTRA-LIGAND FREE ENERGY PREDICTED BY IDOCK:   -0.39 KCAL/MOL
REMARK 927      BINDING AFFINITY PREDICTED BY RF-SCORE:    0.00 PKD
ROOT
HETATM    1  C   UNL     1      -8.650   6.420  67.895  1.00  0.00    -0.116 C  
HETATM    2  N   UNL     1      -9.580   6.569  66.770  1.00  0.00    -0.156 NA 
HETATM    3  C   UNL     1     -10.067   5.250  66.361  1.00  0.00    -0.226 C  
ENDROOT
BRANCH   2   4
HETATM    4  C   UNL     1     -10.680   7.478  67.157  1.00  0.00    -0.309 C  
BRANCH   4   5
HETATM    5  C   UNL     1     -10.308   8.973  67.141  1.00  0.00    -0.342 C  
BRANCH   5   6
HETATM    6  C   UNL     1     -10.833   9.714  68.338  1.00  0.00    -0.212 A  
HETATM    7  C   UNL     1     -11.062   9.191  69.593  1.00  0.00    -0.087 A  
HETATM    8  N   UNL     1     -11.525  10.191  70.403  1.00  0.00    -0.299 NA 
HETATM    9  C   UNL     1     -11.602  11.372  69.703  1.00  0.00    -0.330 A  
HETATM   10  H   UNL     1     -11.776  10.077  71.385  1.00  0.00     0.000 HD 
HETATM   11  C   UNL     1     -12.004  12.645  70.122  1.00  0.00    -0.375 A  
HETATM   12  C   UNL     1     -11.984  13.677  69.177  1.00  0.00    -0.394 A  
HETATM   13  C   UNL     1     -11.583  13.451  67.854  1.00  0.00    -0.374 A  
HETATM   14  C   UNL     1     -11.162  12.165  67.472  1.00  0.00    -0.357 A  
HETATM   15  C   UNL     1     -11.178  11.104  68.403  1.00  0.00    -0.325 A  
BRANCH  13  16
HETATM   16  C   UNL     1     -11.590  14.582  66.851  1.00  0.00    -0.399 C  
BRANCH  16  17
HETATM   17  C   UNL     1     -10.611  15.702  67.201  1.00  0.00    -0.308 C  
HETATM   18  C   UNL     1      -9.691  16.120  66.069  1.00  0.00    -0.344 C  
HETATM   19  O   UNL     1      -9.386  17.491  66.370  1.00  0.00    -0.261 OA 
HETATM   20  C   UNL     1     -10.375  17.964  67.186  1.00  0.00    -0.367 C  
HETATM   21  N   UNL     1     -11.237  16.949  67.514  1.00  0.00    -0.006 NA 
HETATM   22  O   UNL     1     -10.455  19.108  67.597  1.00  0.00    -0.396 OA 
ENDBRANCH  16  17
ENDBRANCH  13  16
ENDBRANCH   5   6
ENDBRANCH   4   5
ENDBRANCH   2   4
TORSDOF 5
ENDMDL
MODEL      121
REMARK 921   NORMALIZED FREE ENERGY PREDICTED BY IDOCK:   -4.59 KCAL/MOL
REMARK 922        TOTAL FREE ENERGY PREDICTED BY IDOCK:   -6.37 KCAL/MOL
REMARK 923 INTER-LIGAND FREE ENERGY PREDICTED BY IDOCK:   -6.11 KCAL/MOL
REMARK 924 INTRA-LIGAND FREE ENERGY PREDICTED BY IDOCK:   -0.26 KCAL/MOL
REMARK 927      BINDING AFFINITY PREDICTED BY RF-SCORE:    0.00 PKD
ROOT
HETATM    1  C   UNL     1     -10.557  11.029  64.301  1.00  0.00    -0.331 C  
HETATM    2  N   UNL     1     -10.091  10.565  65.612  1.00  0.00    -0.264 NA 
HETATM    3  C   UNL     1      -8.845  11.250  65.959  1.00  0.00    -0.184 C  
ENDROOT
BRANCH   2   4
HETATM    4  C   UNL     1     -11.152  10.786  66.619  1.00  0.00    -0.035 C  
BRANCH   4   5
HETATM    5  C   UNL     1     -10.755  10.406  68.058  1.00  0.00    -0.292 C  
BRANCH   5   6
HETATM    6  C   UNL     1     -11.313  11.352  69.083  1.00  0.00    -0.353 A  
HETATM    7  C   UNL     1     -11.795  11.020  70.332  1.00  0.00    -0.367 A  
HETATM    8  N   UNL     1     -12.198  12.165  70.962  1.00  0.00    -0.364 NA 
HETATM    9  C   UNL     1     -11.986  13.254  70.148  1.00  0.00    -0.318 A  
HETATM   10  H   UNL     1     -12.597  12.206  71.899  1.00  0.00     0.000 HD 
HETATM   11  C   UNL     1     -12.231  14.612  70.376  1.00  0.00    -0.391 A  
HETATM   12  C   UNL     1     -11.915  15.511  69.352  1.00  0.00    -0.358 A  
HETATM   13  C   UNL     1     -11.377  15.075  68.135  1.00  0.00    -0.343 A  
HETATM   14  C   UNL     1     -11.121  13.705  67.947  1.00  0.00    -0.283 A  
HETATM   15  C   UNL     1     -11.436  12.776  68.961  1.00  0.00    -0.360 A  
BRANCH  13  16
HETATM   16  C   UNL     1     -11.063  16.068  67.039  1.00  0.00    -0.071 C  
BRANCH  16  17
HETATM   17  C   UNL     1      -9.667  16.677  67.162  1.00  0.00    -0.250 C  
HETATM   18  C   UNL     1      -8.630  16.086  66.226  1.00  0.00    -0.328 C  
HETATM   19  O   UNL     1      -7.692  17.157  66.040  1.00  0.00    -0.401 OA 
HETATM   20  C   UNL     1      -8.337  18.326  66.333  1.00  0.00    -0.243 C  
HETATM   21  N   UNL     1      -9.598  18.059  66.802  1.00  0.00    -0.291 NA 
HETATM   22  O   UNL     1      -7.849  19.438  66.236  1.00  0.00    -0.282 OA 
ENDBRANCH  16  17
ENDBRANCH  13  16
ENDBRANCH   5   6
ENDBRANCH   4   5
ENDBRANCH   2   4
TORSDOF 5
ENDMDL
MODEL      122
REMARK 921   NORMALIZED FREE ENERGY PREDICTED BY IDOCK:   -4.58 KCAL/MOL
REMARK 922        TOTAL FREE ENERGY PREDICTED BY IDOCK:   -6.36 KCAL/MOL
REMARK 923 INTER-LIGAND FREE ENERGY PREDICTED BY IDOCK:   -6.13 KCAL/MOL
REMARK 924 INTRA-LIGAND FREE ENERGY PREDICTED BY IDOCK:   -0.23 KCAL/MOL
REMARK 927      BINDING AFFINITY PREDICTED BY RF-SCORE:    0.00 PKD
ROOT
HETATM    1  C   UNL     1     -12.910  11.964  63.822  1.00  0.00    -0.278 C  
HETATM    2  N   UNL     1     -11.793  12.755  63.293  1.00  0.00    -0.505 NA 
HETATM    3  C   UNL     1     -11.845  14.108  63.848  1.00  0.00    -0.177 C  
ENDROOT
BRANCH   2   4
HETATM    4  C   UNL     1     -10.517  12.072  63.600  1.00  0.00    -0.454 C  
BRANCH   4   5
HETATM    5  C   UNL     1     -10.559  11.172  64.849  1.00  0.00    -0.356 C  
BRANCH   5   6
HETATM    6  C   UNL     1      -9.499  11.523  65.854  1.00  0.00    -0.251 A  
HETATM    7  C   UNL     1      -8.326  10.836  66.085  1.00  0.00    -0.166 A  
HETATM    8  N   UNL     1      -7.628  11.484  67.066  1.00  0.00    -0.148 NA 
HETATM    9  C   UNL     1      -8.321  12.595  67.487  1.00  0.00    -0.177 A  
HETATM   10  H   UNL     1      -6.724  11.187  67.433  1.00  0.00     0.000 HD 
HETATM   11  C   UNL     1      -7.990  13.553  68.451  1.00  0.00    -0.142 A  
HETATM   12  C   UNL     1      -8.902  14.591  68.676  1.00  0.00    -0.180 A  
HETATM   13  C   UNL     1     -10.109  14.671  67.970  1.00  0.00    -0.227 A  
HETATM   14  C   UNL     1     -10.400  13.705  66.991  1.00  0.00    -0.260 A  
HETATM   15  C   UNL     1      -9.501  12.644  66.747  1.00  0.00    -0.237 A  
BRANCH  13  16
HETATM   16  C   UNL     1     -11.083  15.793  68.249  1.00  0.00    -0.342 C  
BRANCH  16  17
HETATM   17  C   UNL     1     -11.898  15.578  69.524  1.00  0.00    -0.372 C  
HETATM   18  C   UNL     1     -11.747  14.205  70.152  1.00  0.00    -0.280 C  
HETATM   19  O   UNL     1     -12.011  14.439  71.545  1.00  0.00    -0.338 OA 
HETATM   20  C   UNL     1     -11.793  15.766  71.788  1.00  0.00    -0.467 C  
HETATM   21  N   UNL     1     -11.512  16.418  70.614  1.00  0.00    -0.277 NA 
HETATM   22  O   UNL     1     -11.880  16.301  72.879  1.00  0.00    -0.499 OA 
ENDBRANCH  16  17
ENDBRANCH  13  16
ENDBRANCH   5   6
ENDBRANCH   4   5
ENDBRANCH   2   4
TORSDOF 5
ENDMDL
MODEL      123
REMARK 921   NORMALIZED FREE ENERGY PREDICTED BY IDOCK:   -4.58 KCAL/MOL
REMARK 922        TOTAL FREE ENERGY PREDICTED BY IDOCK:   -6.35 KCAL/MOL
REMARK 923 INTER-LIGAND FREE ENERGY PREDICTED BY IDOCK:   -5.78 KCAL/MOL
REMARK 924 INTRA-LIGAND FREE ENERGY PREDICTED BY IDOCK:   -0.58 KCAL/MOL
REMARK 927      BINDING AFFINITY PREDICTED BY RF-SCORE:    0.00 PKD
ROOT
HETATM    1  C   UNL     1      -9.230   9.920  65.016  1.00  0.00    -0.240 C  
HETATM    2  N   UNL     1      -8.673   9.785  66.367  1.00  0.00    -0.130 NA 
HETATM    3  C   UNL     1      -8.594  11.103  66.997  1.00  0.00    -0.147 C  
ENDROOT
BRANCH   2   4
HETATM    4  C   UNL     1      -9.497   8.837  67.148  1.00  0.00    -0.162 C  
BRANCH   4   5
HETATM    5  C   UNL     1      -9.039   8.645  68.606  1.00  0.00    -0.138 C  
BRANCH   5   6
HETATM    6  C   UNL     1     -10.189   8.560  69.569  1.00  0.00    -0.206 A  
HETATM    7  C   UNL     1     -10.621   7.433  70.237  1.00  0.00    -0.231 A  
HETATM    8  N   UNL     1     -11.682   7.776  71.028  1.00  0.00    -0.285 NA 
HETATM    9  C   UNL     1     -11.959   9.116  70.896  1.00  0.00    -0.242 A  
HETATM   10  H   UNL     1     -12.195   7.130  71.628  1.00  0.00     0.000 HD 
HETATM   11  C   UNL     1     -12.938   9.900  71.515  1.00  0.00    -0.523 A  
HETATM   12  C   UNL     1     -12.990  11.259  71.183  1.00  0.00    -0.369 A  
HETATM   13  C   UNL     1     -12.100  11.821  70.259  1.00  0.00    -0.426 A  
HETATM   14  C   UNL     1     -11.113  11.010  69.672  1.00  0.00    -0.320 A  
HETATM   15  C   UNL     1     -11.042   9.635  69.984  1.00  0.00    -0.293 A  
BRANCH  13  16
HETATM   16  C   UNL     1     -12.193  13.288  69.905  1.00  0.00    -0.313 C  
BRANCH  16  17
HETATM   17  C   UNL     1     -11.447  13.644  68.620  1.00  0.00    -0.307 C  
HETATM   18  C   UNL     1     -12.274  13.534  67.353  1.00  0.00    -0.235 C  
HETATM   19  O   UNL     1     -11.658  14.479  66.463  1.00  0.00    -0.360 OA 
HETATM   20  C   UNL     1     -10.974  15.381  67.229  1.00  0.00    -0.317 C  
HETATM   21  N   UNL     1     -11.024  15.008  68.548  1.00  0.00    -0.247 NA 
HETATM   22  O   UNL     1     -10.371  16.348  66.800  1.00  0.00    -0.286 OA 
ENDBRANCH  16  17
ENDBRANCH  13  16
ENDBRANCH   5   6
ENDBRANCH   4   5
ENDBRANCH   2   4
TORSDOF 5
ENDMDL
MODEL      124
REMARK 921   NORMALIZED FREE ENERGY PREDICTED BY IDOCK:   -4.57 KCAL/MOL
REMARK 922        TOTAL FREE ENERGY PREDICTED BY IDOCK:   -6.35 KCAL/MOL
REMARK 923 INTER-LIGAND FREE ENERGY PREDICTED BY IDOCK:   -5.92 KCAL/MOL
REMARK 924 INTRA-LIGAND FREE ENERGY PREDICTED BY IDOCK:   -0.43 KCAL/MOL
REMARK 927      BINDING AFFINITY PREDICTED BY RF-SCORE:    0.00 PKD
ROOT
HETATM    1  C   UNL     1     -12.796  11.892  63.471  1.00  0.00    -0.305 C  
HETATM    2  N   UNL     1     -11.822  12.984  63.358  1.00  0.00    -0.524 NA 
HETATM    3  C   UNL     1     -12.238  14.099  64.210  1.00  0.00    -0.420 C  
ENDROOT
BRANCH   2   4
HETATM    4  C   UNL     1     -10.476  12.483  63.708  1.00  0.00    -0.419 C  
BRANCH   4   5
HETATM    5  C   UNL     1     -10.468  11.340  64.740  1.00  0.00    -0.384 C  
BRANCH   5   6
HETATM    6  C   UNL     1      -9.421  11.523  65.801  1.00  0.00    -0.255 A  
HETATM    7  C   UNL     1      -8.356  10.684  66.059  1.00  0.00    -0.160 A  
HETATM    8  N   UNL     1      -7.629  11.209  67.091  1.00  0.00    -0.118 NA 
HETATM    9  C   UNL     1      -8.195  12.386  67.521  1.00  0.00    -0.173 A  
HETATM   10  H   UNL     1      -6.789  10.788  67.486  1.00  0.00     0.000 HD 
HETATM   11  C   UNL     1      -7.792  13.265  68.531  1.00  0.00    -0.110 A  
HETATM   12  C   UNL     1      -8.575  14.404  68.754  1.00  0.00    -0.125 A  
HETATM   13  C   UNL     1      -9.727  14.659  68.000  1.00  0.00    -0.216 A  
HETATM   14  C   UNL     1     -10.092  13.767  66.976  1.00  0.00    -0.256 A  
HETATM   15  C   UNL     1      -9.323  12.608  66.734  1.00  0.00    -0.232 A  
BRANCH  13  16
HETATM   16  C   UNL     1     -10.564  15.887  68.276  1.00  0.00    -0.276 C  
BRANCH  16  17
HETATM   17  C   UNL     1     -10.386  16.984  67.227  1.00  0.00    -0.311 C  
HETATM   18  C   UNL     1     -10.754  18.379  67.695  1.00  0.00    -0.357 C  
HETATM   19  O   UNL     1      -9.938  19.236  66.880  1.00  0.00    -0.316 OA 
HETATM   20  C   UNL     1      -8.883  18.493  66.429  1.00  0.00    -0.256 C  
HETATM   21  N   UNL     1      -9.031  17.186  66.816  1.00  0.00    -0.231 NA 
HETATM   22  O   UNL     1      -7.968  18.920  65.747  1.00  0.00    -0.473 OA 
ENDBRANCH  16  17
ENDBRANCH  13  16
ENDBRANCH   5   6
ENDBRANCH   4   5
ENDBRANCH   2   4
TORSDOF 5
ENDMDL
MODEL      125
REMARK 921   NORMALIZED FREE ENERGY PREDICTED BY IDOCK:   -4.57 KCAL/MOL
REMARK 922        TOTAL FREE ENERGY PREDICTED BY IDOCK:   -6.35 KCAL/MOL
REMARK 923 INTER-LIGAND FREE ENERGY PREDICTED BY IDOCK:   -5.81 KCAL/MOL
REMARK 924 INTRA-LIGAND FREE ENERGY PREDICTED BY IDOCK:   -0.54 KCAL/MOL
REMARK 927      BINDING AFFINITY PREDICTED BY RF-SCORE:    0.00 PKD
ROOT
HETATM    1  C   UNL     1     -10.774  18.297  67.373  1.00  0.00    -0.350 C  
HETATM    2  N   UNL     1      -9.924  19.161  66.546  1.00  0.00    -0.356 NA 
HETATM    3  C   UNL     1     -10.763  19.955  65.647  1.00  0.00    -0.272 C  
ENDROOT
BRANCH   2   4
HETATM    4  C   UNL     1      -9.082  20.006  67.419  1.00  0.00    -0.357 C  
BRANCH   4   5
HETATM    5  C   UNL     1      -7.566  19.843  67.195  1.00  0.00    -0.301 C  
BRANCH   5   6
HETATM    6  C   UNL     1      -6.918  18.964  68.225  1.00  0.00    -0.273 A  
HETATM    7  C   UNL     1      -6.085  19.371  69.247  1.00  0.00    -0.275 A  
HETATM    8  N   UNL     1      -5.717  18.272  69.973  1.00  0.00    -0.240 NA 
HETATM    9  C   UNL     1      -6.298  17.141  69.449  1.00  0.00    -0.238 A  
HETATM   10  H   UNL     1      -5.102  18.288  70.785  1.00  0.00     0.000 HD 
HETATM   11  C   UNL     1      -6.218  15.808  69.867  1.00  0.00    -0.157 A  
HETATM   12  C   UNL     1      -6.923  14.851  69.130  1.00  0.00    -0.139 A  
HETATM   13  C   UNL     1      -7.681  15.205  68.007  1.00  0.00    -0.131 A  
HETATM   14  C   UNL     1      -7.761  16.556  67.627  1.00  0.00    -0.167 A  
HETATM   15  C   UNL     1      -7.054  17.542  68.349  1.00  0.00    -0.222 A  
BRANCH  13  16
HETATM   16  C   UNL     1      -8.418  14.145  67.219  1.00  0.00    -0.228 C  
BRANCH  16  17
HETATM   17  C   UNL     1      -9.834  13.890  67.733  1.00  0.00    -0.237 C  
HETATM   18  C   UNL     1     -10.938  14.485  66.880  1.00  0.00    -0.316 C  
HETATM   19  O   UNL     1     -12.061  13.626  67.131  1.00  0.00    -0.389 OA 
HETATM   20  C   UNL     1     -11.574  12.432  67.583  1.00  0.00    -0.357 C  
HETATM   21  N   UNL     1     -10.213  12.511  67.740  1.00  0.00    -0.212 NA 
HETATM   22  O   UNL     1     -12.251  11.455  67.849  1.00  0.00    -0.592 OA 
ENDBRANCH  16  17
ENDBRANCH  13  16
ENDBRANCH   5   6
ENDBRANCH   4   5
ENDBRANCH   2   4
TORSDOF 5
ENDMDL
MODEL      126
REMARK 921   NORMALIZED FREE ENERGY PREDICTED BY IDOCK:   -4.56 KCAL/MOL
REMARK 922        TOTAL FREE ENERGY PREDICTED BY IDOCK:   -6.34 KCAL/MOL
REMARK 923 INTER-LIGAND FREE ENERGY PREDICTED BY IDOCK:   -5.93 KCAL/MOL
REMARK 924 INTRA-LIGAND FREE ENERGY PREDICTED BY IDOCK:   -0.41 KCAL/MOL
REMARK 927      BINDING AFFINITY PREDICTED BY RF-SCORE:    0.00 PKD
ROOT
HETATM    1  C   UNL     1      -9.712  19.358  69.001  1.00  0.00    -0.404 C  
HETATM    2  N   UNL     1      -9.610  18.921  67.604  1.00  0.00    -0.302 NA 
HETATM    3  C   UNL     1     -10.661  19.562  66.812  1.00  0.00    -0.488 C  
ENDROOT
BRANCH   2   4
HETATM    4  C   UNL     1      -8.257  19.223  67.090  1.00  0.00    -0.268 C  
BRANCH   4   5
HETATM    5  C   UNL     1      -7.737  18.227  66.036  1.00  0.00    -0.200 C  
BRANCH   5   6
HETATM    6  C   UNL     1      -7.149  16.988  66.648  1.00  0.00    -0.289 A  
HETATM    7  C   UNL     1      -5.821  16.772  66.953  1.00  0.00    -0.146 A  
HETATM    8  N   UNL     1      -5.699  15.529  67.508  1.00  0.00    -0.313 NA 
HETATM    9  C   UNL     1      -6.928  14.917  67.579  1.00  0.00    -0.176 A  
HETATM   10  H   UNL     1      -4.822  15.114  67.824  1.00  0.00     0.000 HD 
HETATM   11  C   UNL     1      -7.283  13.660  68.079  1.00  0.00    -0.130 A  
HETATM   12  C   UNL     1      -8.633  13.293  68.019  1.00  0.00    -0.178 A  
HETATM   13  C   UNL     1      -9.599  14.146  67.473  1.00  0.00    -0.223 A  
HETATM   14  C   UNL     1      -9.213  15.413  67.001  1.00  0.00    -0.242 A  
HETATM   15  C   UNL     1      -7.858  15.806  67.044  1.00  0.00    -0.271 A  
BRANCH  13  16
HETATM   16  C   UNL     1     -11.047  13.715  67.404  1.00  0.00    -0.299 C  
BRANCH  16  17
HETATM   17  C   UNL     1     -11.865  14.160  68.616  1.00  0.00    -0.348 C  
HETATM   18  C   UNL     1     -12.021  13.111  69.700  1.00  0.00    -0.306 C  
HETATM   19  O   UNL     1     -12.197  13.884  70.898  1.00  0.00    -0.342 OA 
HETATM   20  C   UNL     1     -11.674  15.126  70.667  1.00  0.00    -0.312 C  
HETATM   21  N   UNL     1     -11.274  15.230  69.359  1.00  0.00    -0.265 NA 
HETATM   22  O   UNL     1     -11.614  16.023  71.488  1.00  0.00    -0.425 OA 
ENDBRANCH  16  17
ENDBRANCH  13  16
ENDBRANCH   5   6
ENDBRANCH   4   5
ENDBRANCH   2   4
TORSDOF 5
ENDMDL
MODEL      127
REMARK 921   NORMALIZED FREE ENERGY PREDICTED BY IDOCK:   -4.56 KCAL/MOL
REMARK 922        TOTAL FREE ENERGY PREDICTED BY IDOCK:   -6.34 KCAL/MOL
REMARK 923 INTER-LIGAND FREE ENERGY PREDICTED BY IDOCK:   -5.90 KCAL/MOL
REMARK 924 INTRA-LIGAND FREE ENERGY PREDICTED BY IDOCK:   -0.43 KCAL/MOL
REMARK 927      BINDING AFFINITY PREDICTED BY RF-SCORE:    0.00 PKD
ROOT
HETATM    1  C   UNL     1      -6.301   7.662  65.160  1.00  0.00    -0.038 C  
HETATM    2  N   UNL     1      -7.201   8.725  65.625  1.00  0.00    -0.083 NA 
HETATM    3  C   UNL     1      -6.573  10.028  65.402  1.00  0.00    -0.110 C  
ENDROOT
BRANCH   2   4
HETATM    4  C   UNL     1      -8.504   8.604  64.936  1.00  0.00    -0.161 C  
BRANCH   4   5
HETATM    5  C   UNL     1      -9.444   9.808  65.133  1.00  0.00    -0.338 C  
BRANCH   5   6
HETATM    6  C   UNL     1     -10.161   9.775  66.452  1.00  0.00    -0.288 A  
HETATM    7  C   UNL     1     -10.334   8.675  67.266  1.00  0.00    -0.296 A  
HETATM    8  N   UNL     1     -11.027   9.063  68.380  1.00  0.00    -0.462 NA 
HETATM    9  C   UNL     1     -11.315  10.406  68.316  1.00  0.00    -0.224 A  
HETATM   10  H   UNL     1     -11.293   8.445  69.146  1.00  0.00     0.000 HD 
HETATM   11  C   UNL     1     -11.987  11.229  69.226  1.00  0.00    -0.411 A  
HETATM   12  C   UNL     1     -12.138  12.580  68.893  1.00  0.00    -0.167 A  
HETATM   13  C   UNL     1     -11.642  13.097  67.690  1.00  0.00    -0.392 A  
HETATM   14  C   UNL     1     -10.949  12.248  66.809  1.00  0.00    -0.321 A  
HETATM   15  C   UNL     1     -10.788  10.880  67.117  1.00  0.00    -0.337 A  
BRANCH  13  16
HETATM   16  C   UNL     1     -11.837  14.557  67.349  1.00  0.00    -0.416 C  
BRANCH  16  17
HETATM   17  C   UNL     1     -10.693  15.446  67.836  1.00  0.00    -0.286 C  
HETATM   18  C   UNL     1      -9.805  16.001  66.738  1.00  0.00    -0.250 C  
HETATM   19  O   UNL     1      -9.297  17.222  67.297  1.00  0.00    -0.232 OA 
HETATM   20  C   UNL     1     -10.154  17.609  68.289  1.00  0.00    -0.362 C  
HETATM   21  N   UNL     1     -11.121  16.653  68.472  1.00  0.00    -0.339 NA 
HETATM   22  O   UNL     1     -10.050  18.631  68.944  1.00  0.00    -0.391 OA 
ENDBRANCH  16  17
ENDBRANCH  13  16
ENDBRANCH   5   6
ENDBRANCH   4   5
ENDBRANCH   2   4
TORSDOF 5
ENDMDL
MODEL      128
REMARK 921   NORMALIZED FREE ENERGY PREDICTED BY IDOCK:   -4.54 KCAL/MOL
REMARK 922        TOTAL FREE ENERGY PREDICTED BY IDOCK:   -6.31 KCAL/MOL
REMARK 923 INTER-LIGAND FREE ENERGY PREDICTED BY IDOCK:   -5.98 KCAL/MOL
REMARK 924 INTRA-LIGAND FREE ENERGY PREDICTED BY IDOCK:   -0.33 KCAL/MOL
REMARK 927      BINDING AFFINITY PREDICTED BY RF-SCORE:    0.00 PKD
ROOT
HETATM    1  C   UNL     1     -11.746  15.509  64.205  1.00  0.00    -0.190 C  
HETATM    2  N   UNL     1     -12.620  14.338  64.340  1.00  0.00    -0.679 NA 
HETATM    3  C   UNL     1     -12.201  13.303  63.394  1.00  0.00    -0.403 C  
ENDROOT
BRANCH   2   4
HETATM    4  C   UNL     1     -12.595  13.862  65.740  1.00  0.00    -0.494 C  
BRANCH   4   5
HETATM    5  C   UNL     1     -12.032  12.440  65.920  1.00  0.00    -0.434 C  
BRANCH   5   6
HETATM    6  C   UNL     1     -10.710  12.426  66.634  1.00  0.00    -0.263 A  
HETATM    7  C   UNL     1      -9.789  13.453  66.679  1.00  0.00    -0.278 A  
HETATM    8  N   UNL     1      -8.726  13.051  67.440  1.00  0.00    -0.195 NA 
HETATM    9  C   UNL     1      -8.931  11.772  67.904  1.00  0.00    -0.180 A  
HETATM   10  H   UNL     1      -7.902  13.617  67.636  1.00  0.00     0.000 HD 
HETATM   11  C   UNL     1      -8.128  10.969  68.720  1.00  0.00    -0.145 A  
HETATM   12  C   UNL     1      -8.595   9.688  69.034  1.00  0.00    -0.133 A  
HETATM   13  C   UNL     1      -9.820   9.216  68.547  1.00  0.00    -0.178 A  
HETATM   14  C   UNL     1     -10.614  10.057  67.749  1.00  0.00    -0.311 A  
HETATM   15  C   UNL     1     -10.165  11.352  67.412  1.00  0.00    -0.221 A  
BRANCH  13  16
HETATM   16  C   UNL     1     -10.289   7.819  68.888  1.00  0.00    -0.224 C  
BRANCH  16  17
HETATM   17  C   UNL     1     -10.840   7.701  70.308  1.00  0.00    -0.246 C  
HETATM   18  C   UNL     1     -11.554   8.938  70.820  1.00  0.00    -0.259 C  
HETATM   19  O   UNL     1     -12.487   8.418  71.780  1.00  0.00    -0.304 OA 
HETATM   20  C   UNL     1     -12.694   7.100  71.482  1.00  0.00    -0.393 C  
HETATM   21  N   UNL     1     -11.867   6.717  70.457  1.00  0.00    -0.400 NA 
HETATM   22  O   UNL     1     -13.466   6.363  72.068  1.00  0.00    -0.049 OA 
ENDBRANCH  16  17
ENDBRANCH  13  16
ENDBRANCH   5   6
ENDBRANCH   4   5
ENDBRANCH   2   4
TORSDOF 5
ENDMDL
MODEL      129
REMARK 921   NORMALIZED FREE ENERGY PREDICTED BY IDOCK:   -4.52 KCAL/MOL
REMARK 922        TOTAL FREE ENERGY PREDICTED BY IDOCK:   -6.28 KCAL/MOL
REMARK 923 INTER-LIGAND FREE ENERGY PREDICTED BY IDOCK:   -6.00 KCAL/MOL
REMARK 924 INTRA-LIGAND FREE ENERGY PREDICTED BY IDOCK:   -0.28 KCAL/MOL
REMARK 927      BINDING AFFINITY PREDICTED BY RF-SCORE:    0.00 PKD
ROOT
HETATM    1  C   UNL     1      -8.765   5.434  68.621  1.00  0.00    -0.097 C  
HETATM    2  N   UNL     1      -8.584   5.774  70.037  1.00  0.00    -0.126 NA 
HETATM    3  C   UNL     1      -7.469   5.001  70.587  1.00  0.00    -0.069 C  
ENDROOT
BRANCH   2   4
HETATM    4  C   UNL     1      -8.376   7.232  70.172  1.00  0.00    -0.137 C  
BRANCH   4   5
HETATM    5  C   UNL     1      -8.629   7.785  71.587  1.00  0.00    -0.138 C  
BRANCH   5   6
HETATM    6  C   UNL     1     -10.089   7.840  71.937  1.00  0.00    -0.231 A  
HETATM    7  C   UNL     1     -10.791   6.913  72.679  1.00  0.00    -0.257 A  
HETATM    8  N   UNL     1     -12.089   7.333  72.783  1.00  0.00    -0.519 NA 
HETATM    9  C   UNL     1     -12.256   8.527  72.122  1.00  0.00    -0.382 A  
HETATM   10  H   UNL     1     -12.826   6.833  73.279  1.00  0.00     0.000 HD 
HETATM   11  C   UNL     1     -13.396   9.325  71.975  1.00  0.00    -0.518 A  
HETATM   12  C   UNL     1     -13.272  10.506  71.234  1.00  0.00    -0.399 A  
HETATM   13  C   UNL     1     -12.054  10.881  70.653  1.00  0.00    -0.468 A  
HETATM   14  C   UNL     1     -10.922  10.069  70.840  1.00  0.00    -0.337 A  
HETATM   15  C   UNL     1     -11.020   8.869  71.577  1.00  0.00    -0.398 A  
BRANCH  13  16
HETATM   16  C   UNL     1     -11.956  12.154  69.842  1.00  0.00    -0.380 C  
BRANCH  16  17
HETATM   17  C   UNL     1     -11.746  11.900  68.350  1.00  0.00    -0.326 C  
HETATM   18  C   UNL     1     -11.754  13.147  67.485  1.00  0.00    -0.366 C  
HETATM   19  O   UNL     1     -10.935  12.786  66.362  1.00  0.00    -0.267 OA 
HETATM   20  C   UNL     1     -10.133  11.751  66.753  1.00  0.00    -0.209 C  
HETATM   21  N   UNL     1     -10.465  11.355  68.023  1.00  0.00    -0.182 NA 
HETATM   22  O   UNL     1      -9.279  11.227  66.060  1.00  0.00    -0.198 OA 
ENDBRANCH  16  17
ENDBRANCH  13  16
ENDBRANCH   5   6
ENDBRANCH   4   5
ENDBRANCH   2   4
TORSDOF 5
ENDMDL
MODEL      130
REMARK 921   NORMALIZED FREE ENERGY PREDICTED BY IDOCK:   -4.50 KCAL/MOL
REMARK 922        TOTAL FREE ENERGY PREDICTED BY IDOCK:   -6.26 KCAL/MOL
REMARK 923 INTER-LIGAND FREE ENERGY PREDICTED BY IDOCK:   -5.80 KCAL/MOL
REMARK 924 INTRA-LIGAND FREE ENERGY PREDICTED BY IDOCK:   -0.45 KCAL/MOL
REMARK 927      BINDING AFFINITY PREDICTED BY RF-SCORE:    0.00 PKD
ROOT
HETATM    1  C   UNL     1      -9.618   9.005  66.088  1.00  0.00    -0.272 C  
HETATM    2  N   UNL     1      -8.669   9.295  67.168  1.00  0.00    -0.127 NA 
HETATM    3  C   UNL     1      -8.956  10.616  67.729  1.00  0.00    -0.140 C  
ENDROOT
BRANCH   2   4
HETATM    4  C   UNL     1      -8.739   8.226  68.187  1.00  0.00    -0.136 C  
BRANCH   4   5
HETATM    5  C   UNL     1      -8.981   8.727  69.623  1.00  0.00    -0.145 C  
BRANCH   5   6
HETATM    6  C   UNL     1     -10.219   8.143  70.241  1.00  0.00    -0.200 A  
HETATM    7  C   UNL     1     -10.487   6.804  70.438  1.00  0.00    -0.206 A  
HETATM    8  N   UNL     1     -11.709   6.688  71.040  1.00  0.00    -0.344 NA 
HETATM    9  C   UNL     1     -12.255   7.933  71.249  1.00  0.00    -0.294 A  
HETATM   10  H   UNL     1     -12.152   5.807  71.297  1.00  0.00     0.000 HD 
HETATM   11  C   UNL     1     -13.470   8.298  71.839  1.00  0.00    -0.372 A  
HETATM   12  C   UNL     1     -13.771   9.663  71.916  1.00  0.00    -0.376 A  
HETATM   13  C   UNL     1     -12.896  10.635  71.417  1.00  0.00    -0.556 A  
HETATM   14  C   UNL     1     -11.673  10.236  70.851  1.00  0.00    -0.472 A  
HETATM   15  C   UNL     1     -11.346   8.866  70.755  1.00  0.00    -0.325 A  
BRANCH  13  16
HETATM   16  C   UNL     1     -13.258  12.101  71.497  1.00  0.00    -0.270 C  
BRANCH  16  17
HETATM   17  C   UNL     1     -12.190  13.017  70.901  1.00  0.00    -0.220 C  
HETATM   18  C   UNL     1     -12.355  13.307  69.421  1.00  0.00    -0.037 C  
HETATM   19  O   UNL     1     -11.732  14.591  69.256  1.00  0.00    -0.275 OA 
HETATM   20  C   UNL     1     -11.716  15.201  70.479  1.00  0.00    -0.302 C  
HETATM   21  N   UNL     1     -12.191  14.342  71.437  1.00  0.00    -0.350 NA 
HETATM   22  O   UNL     1     -11.299  16.325  70.694  1.00  0.00    -0.386 OA 
ENDBRANCH  16  17
ENDBRANCH  13  16
ENDBRANCH   5   6
ENDBRANCH   4   5
ENDBRANCH   2   4
TORSDOF 5
ENDMDL
MODEL      131
REMARK 921   NORMALIZED FREE ENERGY PREDICTED BY IDOCK:   -4.50 KCAL/MOL
REMARK 922        TOTAL FREE ENERGY PREDICTED BY IDOCK:   -6.25 KCAL/MOL
REMARK 923 INTER-LIGAND FREE ENERGY PREDICTED BY IDOCK:   -5.65 KCAL/MOL
REMARK 924 INTRA-LIGAND FREE ENERGY PREDICTED BY IDOCK:   -0.60 KCAL/MOL
REMARK 927      BINDING AFFINITY PREDICTED BY RF-SCORE:    0.00 PKD
ROOT
HETATM    1  C   UNL     1     -13.146  11.922  63.899  1.00  0.00     0.004 C  
HETATM    2  N   UNL     1     -12.249  12.978  63.418  1.00  0.00    -0.694 NA 
HETATM    3  C   UNL     1     -12.247  14.090  64.370  1.00  0.00    -0.426 C  
ENDROOT
BRANCH   2   4
HETATM    4  C   UNL     1     -10.897  12.418  63.207  1.00  0.00    -0.246 C  
BRANCH   4   5
HETATM    5  C   UNL     1     -10.703  10.993  63.760  1.00  0.00    -0.294 C  
BRANCH   5   6
HETATM    6  C   UNL     1      -9.603  10.911  64.780  1.00  0.00    -0.301 A  
HETATM    7  C   UNL     1      -8.287  10.571  64.544  1.00  0.00    -0.108 A  
HETATM    8  N   UNL     1      -7.604  10.627  65.727  1.00  0.00    -0.220 NA 
HETATM    9  C   UNL     1      -8.448  11.003  66.745  1.00  0.00    -0.148 A  
HETATM   10  H   UNL     1      -6.612  10.419  65.839  1.00  0.00     0.000 HD 
HETATM   11  C   UNL     1      -8.190  11.202  68.105  1.00  0.00    -0.131 A  
HETATM   12  C   UNL     1      -9.259  11.588  68.922  1.00  0.00     0.005 A  
HETATM   13  C   UNL     1     -10.548  11.765  68.404  1.00  0.00    -0.239 A  
HETATM   14  C   UNL     1     -10.769  11.581  67.028  1.00  0.00    -0.300 A  
HETATM   15  C   UNL     1      -9.710  11.186  66.183  1.00  0.00    -0.253 A  
BRANCH  13  16
HETATM   16  C   UNL     1     -11.688  12.164  69.314  1.00  0.00    -0.386 C  
BRANCH  16  17
HETATM   17  C   UNL     1     -12.070  13.638  69.187  1.00  0.00    -0.319 C  
HETATM   18  C   UNL     1     -12.678  14.248  70.437  1.00  0.00    -0.295 C  
HETATM   19  O   UNL     1     -12.345  15.641  70.330  1.00  0.00    -0.400 OA 
HETATM   20  C   UNL     1     -11.269  15.744  69.493  1.00  0.00    -0.317 C  
HETATM   21  N   UNL     1     -10.961  14.514  68.972  1.00  0.00    -0.249 NA 
HETATM   22  O   UNL     1     -10.695  16.783  69.217  1.00  0.00    -0.334 OA 
ENDBRANCH  16  17
ENDBRANCH  13  16
ENDBRANCH   5   6
ENDBRANCH   4   5
ENDBRANCH   2   4
TORSDOF 5
ENDMDL
MODEL      132
REMARK 921   NORMALIZED FREE ENERGY PREDICTED BY IDOCK:   -4.47 KCAL/MOL
REMARK 922        TOTAL FREE ENERGY PREDICTED BY IDOCK:   -6.22 KCAL/MOL
REMARK 923 INTER-LIGAND FREE ENERGY PREDICTED BY IDOCK:   -5.69 KCAL/MOL
REMARK 924 INTRA-LIGAND FREE ENERGY PREDICTED BY IDOCK:   -0.53 KCAL/MOL
REMARK 927      BINDING AFFINITY PREDICTED BY RF-SCORE:    0.00 PKD
ROOT
HETATM    1  C   UNL     1     -10.304   7.562  66.855  1.00  0.00    -0.309 C  
HETATM    2  N   UNL     1     -10.134   6.151  66.487  1.00  0.00    -0.152 NA 
HETATM    3  C   UNL     1      -8.793   5.947  65.939  1.00  0.00    -0.149 C  
ENDROOT
BRANCH   2   4
HETATM    4  C   UNL     1     -10.395   5.299  67.666  1.00  0.00    -0.146 C  
BRANCH   4   5
HETATM    5  C   UNL     1      -9.128   4.830  68.408  1.00  0.00    -0.148 C  
BRANCH   5   6
HETATM    6  C   UNL     1      -9.439   4.105  69.686  1.00  0.00    -0.259 A  
HETATM    7  C   UNL     1      -9.302   2.752  69.918  1.00  0.00    -0.132 A  
HETATM    8  N   UNL     1      -9.675   2.492  71.208  1.00  0.00    -0.153 NA 
HETATM    9  C   UNL     1     -10.054   3.655  71.836  1.00  0.00    -0.112 A  
HETATM   10  H   UNL     1      -9.671   1.570  71.641  1.00  0.00     0.000 HD 
HETATM   11  C   UNL     1     -10.493   3.871  73.147  1.00  0.00    -0.254 A  
HETATM   12  C   UNL     1     -10.819   5.181  73.517  1.00  0.00    -0.360 A  
HETATM   13  C   UNL     1     -10.718   6.244  72.611  1.00  0.00    -0.260 A  
HETATM   14  C   UNL     1     -10.251   5.996  71.307  1.00  0.00    -0.253 A  
HETATM   15  C   UNL     1      -9.921   4.684  70.906  1.00  0.00    -0.273 A  
BRANCH  13  16
HETATM   16  C   UNL     1     -11.095   7.645  73.033  1.00  0.00    -0.437 C  
BRANCH  16  17
HETATM   17  C   UNL     1     -11.882   8.404  71.965  1.00  0.00    -0.353 C  
HETATM   18  C   UNL     1     -13.205   8.978  72.436  1.00  0.00    -0.447 C  
HETATM   19  O   UNL     1     -13.409  10.109  71.573  1.00  0.00    -0.370 OA 
HETATM   20  C   UNL     1     -12.189  10.477  71.080  1.00  0.00    -0.400 C  
HETATM   21  N   UNL     1     -11.231   9.584  71.486  1.00  0.00    -0.383 NA 
HETATM   22  O   UNL     1     -11.989  11.431  70.350  1.00  0.00    -0.340 OA 
ENDBRANCH  16  17
ENDBRANCH  13  16
ENDBRANCH   5   6
ENDBRANCH   4   5
ENDBRANCH   2   4
TORSDOF 5
ENDMDL
MODEL      133
REMARK 921   NORMALIZED FREE ENERGY PREDICTED BY IDOCK:   -4.47 KCAL/MOL
REMARK 922        TOTAL FREE ENERGY PREDICTED BY IDOCK:   -6.21 KCAL/MOL
REMARK 923 INTER-LIGAND FREE ENERGY PREDICTED BY IDOCK:   -5.80 KCAL/MOL
REMARK 924 INTRA-LIGAND FREE ENERGY PREDICTED BY IDOCK:   -0.41 KCAL/MOL
REMARK 927      BINDING AFFINITY PREDICTED BY RF-SCORE:    0.00 PKD
ROOT
HETATM    1  C   UNL     1     -10.653  18.364  67.518  1.00  0.00    -0.416 C  
HETATM    2  N   UNL     1     -10.181  17.588  66.366  1.00  0.00    -0.348 NA 
HETATM    3  C   UNL     1      -8.732  17.747  66.230  1.00  0.00    -0.176 C  
ENDROOT
BRANCH   2   4
HETATM    4  C   UNL     1     -10.578  16.173  66.528  1.00  0.00    -0.268 C  
BRANCH   4   5
HETATM    5  C   UNL     1      -9.909  15.454  67.714  1.00  0.00    -0.220 C  
BRANCH   5   6
HETATM    6  C   UNL     1     -10.903  14.819  68.644  1.00  0.00    -0.257 A  
HETATM    7  C   UNL     1     -11.901  15.464  69.345  1.00  0.00    -0.351 A  
HETATM    8  N   UNL     1     -12.598  14.533  70.065  1.00  0.00    -0.512 NA 
HETATM    9  C   UNL     1     -12.077  13.279  69.850  1.00  0.00    -0.308 A  
HETATM   10  H   UNL     1     -13.388  14.739  70.674  1.00  0.00     0.000 HD 
HETATM   11  C   UNL     1     -12.472  12.038  70.360  1.00  0.00    -0.235 A  
HETATM   12  C   UNL     1     -11.744  10.910  69.964  1.00  0.00    -0.427 A  
HETATM   13  C   UNL     1     -10.654  11.011  69.091  1.00  0.00    -0.253 A  
HETATM   14  C   UNL     1     -10.297  12.271  68.578  1.00  0.00    -0.234 A  
HETATM   15  C   UNL     1     -11.010  13.426  68.965  1.00  0.00    -0.265 A  
BRANCH  13  16
HETATM   16  C   UNL     1      -9.875   9.777  68.696  1.00  0.00    -0.168 C  
BRANCH  16  17
HETATM   17  C   UNL     1     -10.708   8.497  68.755  1.00  0.00    -0.054 C  
HETATM   18  C   UNL     1     -10.597   7.608  67.530  1.00  0.00    -0.252 C  
HETATM   19  O   UNL     1     -10.868   6.293  68.040  1.00  0.00    -0.272 OA 
HETATM   20  C   UNL     1     -10.619   6.313  69.384  1.00  0.00    -0.271 C  
HETATM   21  N   UNL     1     -10.310   7.588  69.784  1.00  0.00    -0.215 NA 
HETATM   22  O   UNL     1     -10.702   5.349  70.125  1.00  0.00    -0.298 OA 
ENDBRANCH  16  17
ENDBRANCH  13  16
ENDBRANCH   5   6
ENDBRANCH   4   5
ENDBRANCH   2   4
TORSDOF 5
ENDMDL
MODEL      134
REMARK 921   NORMALIZED FREE ENERGY PREDICTED BY IDOCK:   -4.44 KCAL/MOL
REMARK 922        TOTAL FREE ENERGY PREDICTED BY IDOCK:   -6.18 KCAL/MOL
REMARK 923 INTER-LIGAND FREE ENERGY PREDICTED BY IDOCK:   -5.69 KCAL/MOL
REMARK 924 INTRA-LIGAND FREE ENERGY PREDICTED BY IDOCK:   -0.49 KCAL/MOL
REMARK 927      BINDING AFFINITY PREDICTED BY RF-SCORE:    0.00 PKD
ROOT
HETATM    1  C   UNL     1      -6.036  14.690  70.170  1.00  0.00    -0.158 C  
HETATM    2  N   UNL     1      -5.165  15.092  69.060  1.00  0.00    -0.097 NA 
HETATM    3  C   UNL     1      -5.254  14.103  67.985  1.00  0.00    -0.100 C  
ENDROOT
BRANCH   2   4
HETATM    4  C   UNL     1      -5.539  16.449  68.606  1.00  0.00    -0.106 C  
BRANCH   4   5
HETATM    5  C   UNL     1      -6.635  17.125  69.451  1.00  0.00    -0.220 C  
BRANCH   5   6
HETATM    6  C   UNL     1      -7.575  17.957  68.625  1.00  0.00    -0.285 A  
HETATM    7  C   UNL     1      -7.706  19.330  68.661  1.00  0.00    -0.359 A  
HETATM    8  N   UNL     1      -8.655  19.700  67.749  1.00  0.00    -0.316 NA 
HETATM    9  C   UNL     1      -9.153  18.592  67.106  1.00  0.00    -0.288 A  
HETATM   10  H   UNL     1      -8.951  20.660  67.572  1.00  0.00     0.000 HD 
HETATM   11  C   UNL     1     -10.119  18.491  66.099  1.00  0.00    -0.391 A  
HETATM   12  C   UNL     1     -10.436  17.213  65.626  1.00  0.00    -0.208 A  
HETATM   13  C   UNL     1      -9.816  16.068  66.141  1.00  0.00    -0.351 A  
HETATM   14  C   UNL     1      -8.832  16.205  67.136  1.00  0.00    -0.218 A  
HETATM   15  C   UNL     1      -8.498  17.483  67.636  1.00  0.00    -0.215 A  
BRANCH  13  16
HETATM   16  C   UNL     1     -10.193  14.698  65.624  1.00  0.00    -0.382 C  
BRANCH  16  17
HETATM   17  C   UNL     1     -11.063  13.906  66.599  1.00  0.00    -0.306 C  
HETATM   18  C   UNL     1     -11.940  12.849  65.955  1.00  0.00    -0.446 C  
HETATM   19  O   UNL     1     -12.116  11.874  66.996  1.00  0.00    -0.600 OA 
HETATM   20  C   UNL     1     -11.086  12.027  67.882  1.00  0.00    -0.236 C  
HETATM   21  N   UNL     1     -10.323  13.111  67.530  1.00  0.00    -0.223 NA 
HETATM   22  O   UNL     1     -10.899  11.331  68.864  1.00  0.00    -0.187 OA 
ENDBRANCH  16  17
ENDBRANCH  13  16
ENDBRANCH   5   6
ENDBRANCH   4   5
ENDBRANCH   2   4
TORSDOF 5
ENDMDL
MODEL      135
REMARK 921   NORMALIZED FREE ENERGY PREDICTED BY IDOCK:   -4.43 KCAL/MOL
REMARK 922        TOTAL FREE ENERGY PREDICTED BY IDOCK:   -6.17 KCAL/MOL
REMARK 923 INTER-LIGAND FREE ENERGY PREDICTED BY IDOCK:   -5.71 KCAL/MOL
REMARK 924 INTRA-LIGAND FREE ENERGY PREDICTED BY IDOCK:   -0.46 KCAL/MOL
REMARK 927      BINDING AFFINITY PREDICTED BY RF-SCORE:    0.00 PKD
ROOT
HETATM    1  C   UNL     1     -12.641  15.549  73.451  1.00  0.00    -0.525 C  
HETATM    2  N   UNL     1     -12.972  14.528  72.451  1.00  0.00    -0.360 NA 
HETATM    3  C   UNL     1     -14.382  14.647  72.078  1.00  0.00    -0.558 C  
ENDROOT
BRANCH   2   4
HETATM    4  C   UNL     1     -12.070  14.666  71.288  1.00  0.00    -0.350 C  
BRANCH   4   5
HETATM    5  C   UNL     1     -12.765  14.519  69.920  1.00  0.00    -0.118 C  
BRANCH   5   6
HETATM    6  C   UNL     1     -11.790  14.443  68.780  1.00  0.00    -0.360 A  
HETATM    7  C   UNL     1     -11.238  15.507  68.098  1.00  0.00    -0.343 A  
HETATM    8  N   UNL     1     -10.391  15.019  67.142  1.00  0.00    -0.254 NA 
HETATM    9  C   UNL     1     -10.371  13.645  67.182  1.00  0.00    -0.250 A  
HETATM   10  H   UNL     1      -9.852  15.591  66.493  1.00  0.00     0.000 HD 
HETATM   11  C   UNL     1      -9.649  12.730  66.409  1.00  0.00    -0.254 A  
HETATM   12  C   UNL     1      -9.831  11.368  66.673  1.00  0.00    -0.233 A  
HETATM   13  C   UNL     1     -10.710  10.927  67.671  1.00  0.00    -0.288 A  
HETATM   14  C   UNL     1     -11.403  11.873  68.446  1.00  0.00    -0.331 A  
HETATM   15  C   UNL     1     -11.242  13.253  68.197  1.00  0.00    -0.302 A  
BRANCH  13  16
HETATM   16  C   UNL     1     -10.901   9.448  67.920  1.00  0.00    -0.215 C  
BRANCH  16  17
HETATM   17  C   UNL     1     -10.302   8.980  69.247  1.00  0.00    -0.219 C  
HETATM   18  C   UNL     1     -10.840   7.656  69.756  1.00  0.00    -0.217 C  
HETATM   19  O   UNL     1      -9.761   7.134  70.548  1.00  0.00    -0.176 OA 
HETATM   20  C   UNL     1      -8.610   7.740  70.126  1.00  0.00    -0.139 C  
HETATM   21  N   UNL     1      -8.902   8.698  69.189  1.00  0.00    -0.137 NA 
HETATM   22  O   UNL     1      -7.496   7.497  70.553  1.00  0.00    -0.077 OA 
ENDBRANCH  16  17
ENDBRANCH  13  16
ENDBRANCH   5   6
ENDBRANCH   4   5
ENDBRANCH   2   4
TORSDOF 5
ENDMDL
MODEL      136
REMARK 921   NORMALIZED FREE ENERGY PREDICTED BY IDOCK:   -4.43 KCAL/MOL
REMARK 922        TOTAL FREE ENERGY PREDICTED BY IDOCK:   -6.16 KCAL/MOL
REMARK 923 INTER-LIGAND FREE ENERGY PREDICTED BY IDOCK:   -5.98 KCAL/MOL
REMARK 924 INTRA-LIGAND FREE ENERGY PREDICTED BY IDOCK:   -0.18 KCAL/MOL
REMARK 927      BINDING AFFINITY PREDICTED BY RF-SCORE:    0.00 PKD
ROOT
HETATM    1  C   UNL     1     -10.638   5.907  67.709  1.00  0.00    -0.259 C  
HETATM    2  N   UNL     1     -10.970   6.028  69.133  1.00  0.00    -0.357 NA 
HETATM    3  C   UNL     1     -10.172   5.073  69.904  1.00  0.00    -0.270 C  
ENDROOT
BRANCH   2   4
HETATM    4  C   UNL     1     -10.754   7.423  69.573  1.00  0.00    -0.224 C  
BRANCH   4   5
HETATM    5  C   UNL     1     -11.023   7.670  71.069  1.00  0.00    -0.262 C  
BRANCH   5   6
HETATM    6  C   UNL     1     -11.765   8.952  71.322  1.00  0.00    -0.370 A  
HETATM    7  C   UNL     1     -12.695   9.182  72.314  1.00  0.00    -0.377 A  
HETATM    8  N   UNL     1     -13.126  10.476  72.215  1.00  0.00    -0.527 NA 
HETATM    9  C   UNL     1     -12.492  11.109  71.173  1.00  0.00    -0.393 A  
HETATM   10  H   UNL     1     -13.817  10.908  72.827  1.00  0.00     0.000 HD 
HETATM   11  C   UNL     1     -12.606  12.425  70.712  1.00  0.00    -0.298 A  
HETATM   12  C   UNL     1     -11.828  12.799  69.611  1.00  0.00    -0.384 A  
HETATM   13  C   UNL     1     -10.966  11.893  68.982  1.00  0.00    -0.267 A  
HETATM   14  C   UNL     1     -10.856  10.584  69.485  1.00  0.00    -0.298 A  
HETATM   15  C   UNL     1     -11.634  10.178  70.590  1.00  0.00    -0.429 A  
BRANCH  13  16
HETATM   16  C   UNL     1     -10.151  12.321  67.782  1.00  0.00    -0.202 C  
BRANCH  16  17
HETATM   17  C   UNL     1      -9.633  11.143  66.957  1.00  0.00    -0.181 C  
HETATM   18  C   UNL     1     -10.407  10.869  65.682  1.00  0.00    -0.242 C  
HETATM   19  O   UNL     1      -9.437  10.252  64.822  1.00  0.00    -0.233 OA 
HETATM   20  C   UNL     1      -8.198  10.611  65.274  1.00  0.00    -0.105 C  
HETATM   21  N   UNL     1      -8.314  11.330  66.436  1.00  0.00    -0.168 NA 
HETATM   22  O   UNL     1      -7.144  10.300  64.748  1.00  0.00    -0.138 OA 
ENDBRANCH  16  17
ENDBRANCH  13  16
ENDBRANCH   5   6
ENDBRANCH   4   5
ENDBRANCH   2   4
TORSDOF 5
ENDMDL
MODEL      137
REMARK 921   NORMALIZED FREE ENERGY PREDICTED BY IDOCK:   -4.42 KCAL/MOL
REMARK 922        TOTAL FREE ENERGY PREDICTED BY IDOCK:   -6.15 KCAL/MOL
REMARK 923 INTER-LIGAND FREE ENERGY PREDICTED BY IDOCK:   -5.57 KCAL/MOL
REMARK 924 INTRA-LIGAND FREE ENERGY PREDICTED BY IDOCK:   -0.58 KCAL/MOL
REMARK 927      BINDING AFFINITY PREDICTED BY RF-SCORE:    0.00 PKD
ROOT
HETATM    1  C   UNL     1      -7.835   9.766  67.806  1.00  0.00    -0.094 C  
HETATM    2  N   UNL     1      -8.243  11.135  67.470  1.00  0.00    -0.117 NA 
HETATM    3  C   UNL     1      -7.067  12.007  67.463  1.00  0.00    -0.129 C  
ENDROOT
BRANCH   2   4
HETATM    4  C   UNL     1      -8.950  11.135  66.172  1.00  0.00    -0.195 C  
BRANCH   4   5
HETATM    5  C   UNL     1     -10.483  11.035  66.280  1.00  0.00    -0.310 C  
BRANCH   5   6
HETATM    6  C   UNL     1     -11.051  11.939  67.336  1.00  0.00    -0.336 A  
HETATM    7  C   UNL     1     -11.201  13.308  67.253  1.00  0.00    -0.292 A  
HETATM    8  N   UNL     1     -11.767  13.755  68.414  1.00  0.00    -0.338 NA 
HETATM    9  C   UNL     1     -11.998  12.701  69.266  1.00  0.00    -0.246 A  
HETATM   10  H   UNL     1     -11.986  14.729  68.619  1.00  0.00     0.000 HD 
HETATM   11  C   UNL     1     -12.567  12.681  70.544  1.00  0.00    -0.178 A  
HETATM   12  C   UNL     1     -12.676  11.444  71.189  1.00  0.00    -0.479 A  
HETATM   13  C   UNL     1     -12.229  10.262  70.586  1.00  0.00    -0.422 A  
HETATM   14  C   UNL     1     -11.684  10.313  69.291  1.00  0.00    -0.141 A  
HETATM   15  C   UNL     1     -11.556  11.549  68.620  1.00  0.00    -0.375 A  
BRANCH  13  16
HETATM   16  C   UNL     1     -12.343   8.943  71.315  1.00  0.00    -0.342 C  
BRANCH  16  17
HETATM   17  C   UNL     1     -11.215   8.712  72.320  1.00  0.00    -0.328 C  
HETATM   18  C   UNL     1     -10.924   7.255  72.627  1.00  0.00    -0.299 C  
HETATM   19  O   UNL     1      -9.537   7.258  73.001  1.00  0.00    -0.150 OA 
HETATM   20  C   UNL     1      -8.970   8.382  72.469  1.00  0.00    -0.238 C  
HETATM   21  N   UNL     1      -9.932   9.155  71.870  1.00  0.00    -0.233 NA 
HETATM   22  O   UNL     1      -7.791   8.677  72.553  1.00  0.00    -0.331 OA 
ENDBRANCH  16  17
ENDBRANCH  13  16
ENDBRANCH   5   6
ENDBRANCH   4   5
ENDBRANCH   2   4
TORSDOF 5
ENDMDL
MODEL      138
REMARK 921   NORMALIZED FREE ENERGY PREDICTED BY IDOCK:   -4.42 KCAL/MOL
REMARK 922        TOTAL FREE ENERGY PREDICTED BY IDOCK:   -6.15 KCAL/MOL
REMARK 923 INTER-LIGAND FREE ENERGY PREDICTED BY IDOCK:   -5.81 KCAL/MOL
REMARK 924 INTRA-LIGAND FREE ENERGY PREDICTED BY IDOCK:   -0.34 KCAL/MOL
REMARK 927      BINDING AFFINITY PREDICTED BY RF-SCORE:    0.00 PKD
ROOT
HETATM    1  C   UNL     1      -8.630   8.079  72.221  1.00  0.00    -0.157 C  
HETATM    2  N   UNL     1      -8.944   7.767  70.822  1.00  0.00    -0.147 NA 
HETATM    3  C   UNL     1      -9.063   6.318  70.659  1.00  0.00    -0.151 C  
ENDROOT
BRANCH   2   4
HETATM    4  C   UNL     1     -10.177   8.480  70.423  1.00  0.00    -0.195 C  
BRANCH   4   5
HETATM    5  C   UNL     1     -10.946   7.823  69.261  1.00  0.00    -0.007 C  
BRANCH   5   6
HETATM    6  C   UNL     1     -10.401   8.206  67.914  1.00  0.00    -0.280 A  
HETATM    7  C   UNL     1      -9.681   7.399  67.059  1.00  0.00    -0.191 A  
HETATM    8  N   UNL     1      -9.383   8.115  65.932  1.00  0.00    -0.398 NA 
HETATM    9  C   UNL     1      -9.898   9.386  66.028  1.00  0.00    -0.296 A  
HETATM   10  H   UNL     1      -8.855   7.758  65.137  1.00  0.00     0.000 HD 
HETATM   11  C   UNL     1      -9.852  10.449  65.119  1.00  0.00    -0.378 A  
HETATM   12  C   UNL     1     -10.471  11.649  65.489  1.00  0.00    -0.321 A  
HETATM   13  C   UNL     1     -11.111  11.790  66.726  1.00  0.00    -0.360 A  
HETATM   14  C   UNL     1     -11.161  10.695  67.607  1.00  0.00    -0.385 A  
HETATM   15  C   UNL     1     -10.540   9.475  67.261  1.00  0.00    -0.317 A  
BRANCH  13  16
HETATM   16  C   UNL     1     -11.755  13.105  67.106  1.00  0.00    -0.430 C  
BRANCH  16  17
HETATM   17  C   UNL     1     -11.410  13.554  68.526  1.00  0.00    -0.292 C  
HETATM   18  C   UNL     1     -11.571  15.041  68.780  1.00  0.00    -0.335 C  
HETATM   19  O   UNL     1     -11.843  15.117  70.188  1.00  0.00    -0.270 OA 
HETATM   20  C   UNL     1     -12.322  13.898  70.582  1.00  0.00    -0.381 C  
HETATM   21  N   UNL     1     -12.269  13.014  69.534  1.00  0.00    -0.203 NA 
HETATM   22  O   UNL     1     -12.697  13.625  71.707  1.00  0.00    -0.321 OA 
ENDBRANCH  16  17
ENDBRANCH  13  16
ENDBRANCH   5   6
ENDBRANCH   4   5
ENDBRANCH   2   4
TORSDOF 5
ENDMDL
MODEL      139
REMARK 921   NORMALIZED FREE ENERGY PREDICTED BY IDOCK:   -4.42 KCAL/MOL
REMARK 922        TOTAL FREE ENERGY PREDICTED BY IDOCK:   -6.15 KCAL/MOL
REMARK 923 INTER-LIGAND FREE ENERGY PREDICTED BY IDOCK:   -5.67 KCAL/MOL
REMARK 924 INTRA-LIGAND FREE ENERGY PREDICTED BY IDOCK:   -0.47 KCAL/MOL
REMARK 927      BINDING AFFINITY PREDICTED BY RF-SCORE:    0.00 PKD
ROOT
HETATM    1  C   UNL     1     -12.575  12.563  64.226  1.00  0.00    -0.396 C  
HETATM    2  N   UNL     1     -11.744  12.807  65.411  1.00  0.00    -0.365 NA 
HETATM    3  C   UNL     1     -10.517  13.499  65.015  1.00  0.00    -0.376 C  
ENDROOT
BRANCH   2   4
HETATM    4  C   UNL     1     -12.523  13.571  66.409  1.00  0.00    -0.292 C  
BRANCH   4   5
HETATM    5  C   UNL     1     -11.689  14.128  67.579  1.00  0.00    -0.418 C  
BRANCH   5   6
HETATM    6  C   UNL     1     -11.863  13.336  68.844  1.00  0.00    -0.367 A  
HETATM    7  C   UNL     1     -12.364  13.801  70.042  1.00  0.00    -0.300 A  
HETATM    8  N   UNL     1     -12.373  12.770  70.940  1.00  0.00    -0.399 NA 
HETATM    9  C   UNL     1     -11.888  11.625  70.352  1.00  0.00    -0.293 A  
HETATM   10  H   UNL     1     -12.694  12.839  71.905  1.00  0.00     0.000 HD 
HETATM   11  C   UNL     1     -11.728  10.339  70.879  1.00  0.00    -0.472 A  
HETATM   12  C   UNL     1     -11.198   9.353  70.038  1.00  0.00    -0.217 A  
HETATM   13  C   UNL     1     -10.833   9.637  68.717  1.00  0.00    -0.199 A  
HETATM   14  C   UNL     1     -11.029  10.935  68.211  1.00  0.00    -0.293 A  
HETATM   15  C   UNL     1     -11.556  11.949  69.039  1.00  0.00    -0.376 A  
BRANCH  13  16
HETATM   16  C   UNL     1     -10.245   8.556  67.838  1.00  0.00    -0.273 C  
BRANCH  16  17
HETATM   17  C   UNL     1      -8.814   8.855  67.393  1.00  0.00    -0.129 C  
HETATM   18  C   UNL     1      -7.886   7.655  67.382  1.00  0.00    -0.118 C  
HETATM   19  O   UNL     1      -6.912   7.988  66.381  1.00  0.00    -0.068 OA 
HETATM   20  C   UNL     1      -7.471   8.926  65.559  1.00  0.00    -0.086 C  
HETATM   21  N   UNL     1      -8.703   9.294  66.037  1.00  0.00    -0.146 NA 
HETATM   22  O   UNL     1      -6.936   9.399  64.572  1.00  0.00    -0.091 OA 
ENDBRANCH  16  17
ENDBRANCH  13  16
ENDBRANCH   5   6
ENDBRANCH   4   5
ENDBRANCH   2   4
TORSDOF 5
ENDMDL
MODEL      140
REMARK 921   NORMALIZED FREE ENERGY PREDICTED BY IDOCK:   -4.41 KCAL/MOL
REMARK 922        TOTAL FREE ENERGY PREDICTED BY IDOCK:   -6.14 KCAL/MOL
REMARK 923 INTER-LIGAND FREE ENERGY PREDICTED BY IDOCK:   -5.71 KCAL/MOL
REMARK 924 INTRA-LIGAND FREE ENERGY PREDICTED BY IDOCK:   -0.43 KCAL/MOL
REMARK 927      BINDING AFFINITY PREDICTED BY RF-SCORE:    0.00 PKD
ROOT
HETATM    1  C   UNL     1     -10.131   8.967  66.534  1.00  0.00    -0.286 C  
HETATM    2  N   UNL     1     -10.007  10.410  66.767  1.00  0.00    -0.198 NA 
HETATM    3  C   UNL     1      -8.652  10.716  67.228  1.00  0.00    -0.126 C  
ENDROOT
BRANCH   2   4
HETATM    4  C   UNL     1     -10.358  11.142  65.531  1.00  0.00    -0.268 C  
BRANCH   4   5
HETATM    5  C   UNL     1      -9.913  12.617  65.514  1.00  0.00    -0.237 C  
BRANCH   5   6
HETATM    6  C   UNL     1     -10.765  13.490  66.391  1.00  0.00    -0.287 A  
HETATM    7  C   UNL     1     -12.127  13.387  66.578  1.00  0.00    -0.388 A  
HETATM    8  N   UNL     1     -12.520  14.356  67.460  1.00  0.00    -0.529 NA 
HETATM    9  C   UNL     1     -11.435  15.099  67.862  1.00  0.00    -0.332 A  
HETATM   10  H   UNL     1     -13.478  14.506  67.773  1.00  0.00     0.000 HD 
HETATM   11  C   UNL     1     -11.359  16.173  68.755  1.00  0.00    -0.359 A  
HETATM   12  C   UNL     1     -10.102  16.748  68.976  1.00  0.00    -0.283 A  
HETATM   13  C   UNL     1      -8.956  16.274  68.325  1.00  0.00    -0.192 A  
HETATM   14  C   UNL     1      -9.064  15.177  67.452  1.00  0.00    -0.199 A  
HETATM   15  C   UNL     1     -10.320  14.583  67.206  1.00  0.00    -0.260 A  
BRANCH  13  16
HETATM   16  C   UNL     1      -7.615  16.927  68.569  1.00  0.00    -0.221 C  
BRANCH  16  17
HETATM   17  C   UNL     1      -7.642  18.444  68.383  1.00  0.00    -0.291 C  
HETATM   18  C   UNL     1      -6.575  19.199  69.152  1.00  0.00    -0.302 C  
HETATM   19  O   UNL     1      -6.368  20.385  68.369  1.00  0.00    -0.287 OA 
HETATM   20  C   UNL     1      -6.798  20.120  67.098  1.00  0.00    -0.233 C  
HETATM   21  N   UNL     1      -7.367  18.874  67.047  1.00  0.00    -0.212 NA 
HETATM   22  O   UNL     1      -6.726  20.894  66.160  1.00  0.00    -0.222 OA 
ENDBRANCH  16  17
ENDBRANCH  13  16
ENDBRANCH   5   6
ENDBRANCH   4   5
ENDBRANCH   2   4
TORSDOF 5
ENDMDL
MODEL      141
REMARK 921   NORMALIZED FREE ENERGY PREDICTED BY IDOCK:   -4.39 KCAL/MOL
REMARK 922        TOTAL FREE ENERGY PREDICTED BY IDOCK:   -6.12 KCAL/MOL
REMARK 923 INTER-LIGAND FREE ENERGY PREDICTED BY IDOCK:   -5.83 KCAL/MOL
REMARK 924 INTRA-LIGAND FREE ENERGY PREDICTED BY IDOCK:   -0.28 KCAL/MOL
REMARK 927      BINDING AFFINITY PREDICTED BY RF-SCORE:    0.00 PKD
ROOT
HETATM    1  C   UNL     1      -6.309  17.489  66.700  1.00  0.00    -0.206 C  
HETATM    2  N   UNL     1      -6.813  18.860  66.837  1.00  0.00    -0.195 NA 
HETATM    3  C   UNL     1      -6.488  19.623  65.631  1.00  0.00    -0.242 C  
ENDROOT
BRANCH   2   4
HETATM    4  C   UNL     1      -8.266  18.828  67.107  1.00  0.00    -0.265 C  
BRANCH   4   5
HETATM    5  C   UNL     1      -8.820  17.432  67.451  1.00  0.00    -0.230 C  
BRANCH   5   6
HETATM    6  C   UNL     1      -9.670  16.858  66.353  1.00  0.00    -0.301 A  
HETATM    7  C   UNL     1     -10.326  17.565  65.367  1.00  0.00     0.122 A  
HETATM    8  N   UNL     1     -10.977  16.677  64.555  1.00  0.00    -1.056 NA 
HETATM    9  C   UNL     1     -10.759  15.390  64.988  1.00  0.00    -0.438 A  
HETATM   10  H   UNL     1     -11.542  16.932  63.746  1.00  0.00     0.000 HD 
HETATM   11  C   UNL     1     -11.210  14.174  64.465  1.00  0.00    -0.345 A  
HETATM   12  C   UNL     1     -10.828  13.000  65.125  1.00  0.00    -0.320 A  
HETATM   13  C   UNL     1     -10.027  13.034  66.273  1.00  0.00    -0.283 A  
HETATM   14  C   UNL     1      -9.570  14.272  66.759  1.00  0.00    -0.290 A  
HETATM   15  C   UNL     1      -9.946  15.471  66.117  1.00  0.00    -0.332 A  
BRANCH  13  16
HETATM   16  C   UNL     1      -9.645  11.750  66.975  1.00  0.00    -0.196 C  
BRANCH  16  17
HETATM   17  C   UNL     1     -10.401  11.536  68.287  1.00  0.00    -0.197 C  
HETATM   18  C   UNL     1     -11.892  11.806  68.214  1.00  0.00    -0.271 C  
HETATM   19  O   UNL     1     -12.439  10.963  69.240  1.00  0.00    -0.392 OA 
HETATM   20  C   UNL     1     -11.535   9.967  69.481  1.00  0.00    -0.068 C  
HETATM   21  N   UNL     1     -10.394  10.183  68.751  1.00  0.00    -0.184 NA 
HETATM   22  O   UNL     1     -11.699   9.048  70.263  1.00  0.00    -0.147 OA 
ENDBRANCH  16  17
ENDBRANCH  13  16
ENDBRANCH   5   6
ENDBRANCH   4   5
ENDBRANCH   2   4
TORSDOF 5
ENDMDL
MODEL      142
REMARK 921   NORMALIZED FREE ENERGY PREDICTED BY IDOCK:   -4.38 KCAL/MOL
REMARK 922        TOTAL FREE ENERGY PREDICTED BY IDOCK:   -6.10 KCAL/MOL
REMARK 923 INTER-LIGAND FREE ENERGY PREDICTED BY IDOCK:   -5.87 KCAL/MOL
REMARK 924 INTRA-LIGAND FREE ENERGY PREDICTED BY IDOCK:   -0.23 KCAL/MOL
REMARK 927      BINDING AFFINITY PREDICTED BY RF-SCORE:    0.00 PKD
ROOT
HETATM    1  C   UNL     1     -10.383   5.337  69.760  1.00  0.00    -0.299 C  
HETATM    2  N   UNL     1      -9.765   6.270  68.811  1.00  0.00    -0.127 NA 
HETATM    3  C   UNL     1      -9.444   5.563  67.570  1.00  0.00    -0.117 C  
ENDROOT
BRANCH   2   4
HETATM    4  C   UNL     1     -10.672   7.416  68.586  1.00  0.00    -0.101 C  
BRANCH   4   5
HETATM    5  C   UNL     1     -10.265   8.331  67.415  1.00  0.00    -0.326 C  
BRANCH   5   6
HETATM    6  C   UNL     1      -9.377   9.464  67.845  1.00  0.00    -0.142 A  
HETATM    7  C   UNL     1      -8.109   9.358  68.379  1.00  0.00    -0.109 A  
HETATM    8  N   UNL     1      -7.634  10.616  68.623  1.00  0.00    -0.095 NA 
HETATM    9  C   UNL     1      -8.568  11.556  68.256  1.00  0.00    -0.161 A  
HETATM   10  H   UNL     1      -6.719  10.827  69.021  1.00  0.00     0.000 HD 
HETATM   11  C   UNL     1      -8.512  12.953  68.312  1.00  0.00    -0.161 A  
HETATM   12  C   UNL     1      -9.630  13.667  67.866  1.00  0.00    -0.223 A  
HETATM   13  C   UNL     1     -10.771  13.014  67.384  1.00  0.00    -0.256 A  
HETATM   14  C   UNL     1     -10.785  11.609  67.318  1.00  0.00    -0.281 A  
HETATM   15  C   UNL     1      -9.674  10.864  67.768  1.00  0.00    -0.183 A  
BRANCH  13  16
HETATM   16  C   UNL     1     -11.971  13.812  66.926  1.00  0.00    -0.460 C  
BRANCH  16  17
HETATM   17  C   UNL     1     -12.197  13.744  65.416  1.00  0.00    -0.440 C  
HETATM   18  C   UNL     1     -10.939  13.545  64.592  1.00  0.00    -0.385 C  
HETATM   19  O   UNL     1     -11.411  12.882  63.408  1.00  0.00    -0.435 OA 
HETATM   20  C   UNL     1     -12.603  12.289  63.715  1.00  0.00    -0.470 C  
HETATM   21  N   UNL     1     -12.977  12.623  64.992  1.00  0.00    -0.799 NA 
HETATM   22  O   UNL     1     -13.259  11.602  62.953  1.00  0.00    -0.299 OA 
ENDBRANCH  16  17
ENDBRANCH  13  16
ENDBRANCH   5   6
ENDBRANCH   4   5
ENDBRANCH   2   4
TORSDOF 5
ENDMDL
MODEL      143
REMARK 921   NORMALIZED FREE ENERGY PREDICTED BY IDOCK:   -4.38 KCAL/MOL
REMARK 922        TOTAL FREE ENERGY PREDICTED BY IDOCK:   -6.10 KCAL/MOL
REMARK 923 INTER-LIGAND FREE ENERGY PREDICTED BY IDOCK:   -5.63 KCAL/MOL
REMARK 924 INTRA-LIGAND FREE ENERGY PREDICTED BY IDOCK:   -0.46 KCAL/MOL
REMARK 927      BINDING AFFINITY PREDICTED BY RF-SCORE:    0.00 PKD
ROOT
HETATM    1  C   UNL     1      -9.593  20.532  67.124  1.00  0.00    -0.429 C  
HETATM    2  N   UNL     1      -9.086  19.161  66.996  1.00  0.00    -0.286 NA 
HETATM    3  C   UNL     1      -7.893  19.158  66.148  1.00  0.00    -0.282 C  
ENDROOT
BRANCH   2   4
HETATM    4  C   UNL     1      -8.821  18.605  68.340  1.00  0.00    -0.339 C  
BRANCH   4   5
HETATM    5  C   UNL     1      -9.306  17.157  68.539  1.00  0.00    -0.274 C  
BRANCH   5   6
HETATM    6  C   UNL     1      -8.179  16.198  68.800  1.00  0.00    -0.216 A  
HETATM    7  C   UNL     1      -6.980  16.488  69.418  1.00  0.00    -0.202 A  
HETATM    8  N   UNL     1      -6.233  15.344  69.475  1.00  0.00    -0.132 NA 
HETATM    9  C   UNL     1      -6.922  14.298  68.907  1.00  0.00    -0.107 A  
HETATM   10  H   UNL     1      -5.300  15.276  69.880  1.00  0.00     0.000 HD 
HETATM   11  C   UNL     1      -6.560  12.955  68.756  1.00  0.00    -0.090 A  
HETATM   12  C   UNL     1      -7.473  12.102  68.127  1.00  0.00    -0.114 A  
HETATM   13  C   UNL     1      -8.706  12.569  67.656  1.00  0.00    -0.177 A  
HETATM   14  C   UNL     1      -9.049  13.919  67.845  1.00  0.00    -0.194 A  
HETATM   15  C   UNL     1      -8.145  14.803  68.471  1.00  0.00    -0.146 A  
BRANCH  13  16
HETATM   16  C   UNL     1      -9.665  11.627  66.963  1.00  0.00    -0.201 C  
BRANCH  16  17
HETATM   17  C   UNL     1     -10.417  12.281  65.804  1.00  0.00    -0.255 C  
HETATM   18  C   UNL     1     -10.099  11.709  64.435  1.00  0.00    -0.279 C  
HETATM   19  O   UNL     1     -11.293  11.959  63.678  1.00  0.00    -0.402 OA 
HETATM   20  C   UNL     1     -12.319  12.121  64.567  1.00  0.00    -0.307 C  
HETATM   21  N   UNL     1     -11.834  12.099  65.850  1.00  0.00    -0.546 NA 
HETATM   22  O   UNL     1     -13.484  12.303  64.264  1.00  0.00    -0.653 OA 
ENDBRANCH  16  17
ENDBRANCH  13  16
ENDBRANCH   5   6
ENDBRANCH   4   5
ENDBRANCH   2   4
TORSDOF 5
ENDMDL
MODEL      144
REMARK 921   NORMALIZED FREE ENERGY PREDICTED BY IDOCK:   -4.36 KCAL/MOL
REMARK 922        TOTAL FREE ENERGY PREDICTED BY IDOCK:   -6.07 KCAL/MOL
REMARK 923 INTER-LIGAND FREE ENERGY PREDICTED BY IDOCK:   -5.98 KCAL/MOL
REMARK 924 INTRA-LIGAND FREE ENERGY PREDICTED BY IDOCK:   -0.09 KCAL/MOL
REMARK 927      BINDING AFFINITY PREDICTED BY RF-SCORE:    0.00 PKD
ROOT
HETATM    1  C   UNL     1     -10.733   5.934  67.700  1.00  0.00    -0.270 C  
HETATM    2  N   UNL     1     -11.122   6.069  69.109  1.00  0.00    -0.370 NA 
HETATM    3  C   UNL     1     -10.391   5.090  69.914  1.00  0.00    -0.228 C  
ENDROOT
BRANCH   2   4
HETATM    4  C   UNL     1     -10.879   7.457  69.556  1.00  0.00    -0.189 C  
BRANCH   4   5
HETATM    5  C   UNL     1     -11.140   7.700  71.055  1.00  0.00    -0.273 C  
BRANCH   5   6
HETATM    6  C   UNL     1     -11.893   8.973  71.315  1.00  0.00    -0.379 A  
HETATM    7  C   UNL     1     -12.847   9.179  72.291  1.00  0.00    -0.401 A  
HETATM    8  N   UNL     1     -13.282  10.473  72.206  1.00  0.00    -0.577 NA 
HETATM    9  C   UNL     1     -12.628  11.129  71.190  1.00  0.00    -0.409 A  
HETATM   10  H   UNL     1     -13.989  10.891  72.810  1.00  0.00     0.000 HD 
HETATM   11  C   UNL     1     -12.740  12.453  70.751  1.00  0.00    -0.208 A  
HETATM   12  C   UNL     1     -11.939  12.851  69.675  1.00  0.00    -0.358 A  
HETATM   13  C   UNL     1     -11.059  11.961  69.048  1.00  0.00    -0.300 A  
HETATM   14  C   UNL     1     -10.954  10.643  69.529  1.00  0.00    -0.321 A  
HETATM   15  C   UNL     1     -11.753  10.213  70.609  1.00  0.00    -0.425 A  
BRANCH  13  16
HETATM   16  C   UNL     1     -10.221  12.415  67.875  1.00  0.00    -0.213 C  
BRANCH  16  17
HETATM   17  C   UNL     1      -9.232  13.522  68.236  1.00  0.00    -0.195 C  
HETATM   18  C   UNL     1      -7.790  13.070  68.368  1.00  0.00    -0.134 C  
HETATM   19  O   UNL     1      -7.034  14.250  68.051  1.00  0.00    -0.111 OA 
HETATM   20  C   UNL     1      -7.843  15.073  67.318  1.00  0.00    -0.211 C  
HETATM   21  N   UNL     1      -9.105  14.541  67.240  1.00  0.00    -0.199 NA 
HETATM   22  O   UNL     1      -7.506  16.143  66.843  1.00  0.00    -0.207 OA 
ENDBRANCH  16  17
ENDBRANCH  13  16
ENDBRANCH   5   6
ENDBRANCH   4   5
ENDBRANCH   2   4
TORSDOF 5
ENDMDL
MODEL      145
REMARK 921   NORMALIZED FREE ENERGY PREDICTED BY IDOCK:   -4.35 KCAL/MOL
REMARK 922        TOTAL FREE ENERGY PREDICTED BY IDOCK:   -6.06 KCAL/MOL
REMARK 923 INTER-LIGAND FREE ENERGY PREDICTED BY IDOCK:   -5.94 KCAL/MOL
REMARK 924 INTRA-LIGAND FREE ENERGY PREDICTED BY IDOCK:   -0.13 KCAL/MOL
REMARK 927      BINDING AFFINITY PREDICTED BY RF-SCORE:    0.00 PKD
ROOT
HETATM    1  C   UNL     1      -8.694   8.569  66.238  1.00  0.00    -0.142 C  
HETATM    2  N   UNL     1      -9.376   9.820  66.589  1.00  0.00    -0.153 NA 
HETATM    3  C   UNL     1      -8.415  10.749  67.185  1.00  0.00    -0.126 C  
ENDROOT
BRANCH   2   4
HETATM    4  C   UNL     1     -10.028  10.380  65.387  1.00  0.00    -0.295 C  
BRANCH   4   5
HETATM    5  C   UNL     1     -11.427  10.974  65.637  1.00  0.00     0.419 C  
BRANCH   5   6
HETATM    6  C   UNL     1     -11.668  12.238  64.862  1.00  0.00    -0.409 A  
HETATM    7  C   UNL     1     -12.267  12.342  63.624  1.00  0.00    -0.567 A  
HETATM    8  N   UNL     1     -12.311  13.662  63.271  1.00  0.00    -1.080 NA 
HETATM    9  C   UNL     1     -11.751  14.437  64.260  1.00  0.00    -0.310 A  
HETATM   10  H   UNL     1     -12.701  14.020  62.400  1.00  0.00     0.000 HD 
HETATM   11  C   UNL     1     -11.592  15.824  64.337  1.00  0.00    -0.240 A  
HETATM   12  C   UNL     1     -10.974  16.346  65.480  1.00  0.00    -0.124 A  
HETATM   13  C   UNL     1     -10.524  15.514  66.512  1.00  0.00    -0.301 A  
HETATM   14  C   UNL     1     -10.721  14.125  66.414  1.00  0.00    -0.288 A  
HETATM   15  C   UNL     1     -11.335  13.572  65.270  1.00  0.00    -0.304 A  
BRANCH  13  16
HETATM   16  C   UNL     1      -9.843  16.104  67.726  1.00  0.00    -0.232 C  
BRANCH  16  17
HETATM   17  C   UNL     1     -10.784  16.273  68.919  1.00  0.00    -0.300 C  
HETATM   18  C   UNL     1     -12.079  15.489  68.825  1.00  0.00    -0.141 C  
HETATM   19  O   UNL     1     -12.441  15.266  70.197  1.00  0.00    -0.355 OA 
HETATM   20  C   UNL     1     -11.305  15.384  70.947  1.00  0.00    -0.359 C  
HETATM   21  N   UNL     1     -10.258  15.777  70.153  1.00  0.00    -0.243 NA 
HETATM   22  O   UNL     1     -11.240  15.209  72.151  1.00  0.00    -0.384 OA 
ENDBRANCH  16  17
ENDBRANCH  13  16
ENDBRANCH   5   6
ENDBRANCH   4   5
ENDBRANCH   2   4
TORSDOF 5
ENDMDL
MODEL      146
REMARK 921   NORMALIZED FREE ENERGY PREDICTED BY IDOCK:   -4.35 KCAL/MOL
REMARK 922        TOTAL FREE ENERGY PREDICTED BY IDOCK:   -6.06 KCAL/MOL
REMARK 923 INTER-LIGAND FREE ENERGY PREDICTED BY IDOCK:   -5.71 KCAL/MOL
REMARK 924 INTRA-LIGAND FREE ENERGY PREDICTED BY IDOCK:   -0.35 KCAL/MOL
REMARK 927      BINDING AFFINITY PREDICTED BY RF-SCORE:    0.00 PKD
ROOT
HETATM    1  C   UNL     1      -6.285   8.165  73.002  1.00  0.00    -0.079 C  
HETATM    2  N   UNL     1      -6.714   9.345  72.243  1.00  0.00    -0.193 NA 
HETATM    3  C   UNL     1      -5.549  10.173  71.927  1.00  0.00     0.170 C  
ENDROOT
BRANCH   2   4
HETATM    4  C   UNL     1      -7.441   8.914  71.030  1.00  0.00    -0.110 C  
BRANCH   4   5
HETATM    5  C   UNL     1      -8.236   7.605  71.193  1.00  0.00    -0.100 C  
BRANCH   5   6
HETATM    6  C   UNL     1      -9.539   7.803  71.913  1.00  0.00    -0.210 A  
HETATM    7  C   UNL     1      -9.931   7.195  73.088  1.00  0.00    -0.228 A  
HETATM    8  N   UNL     1     -11.176   7.651  73.420  1.00  0.00    -0.582 NA 
HETATM    9  C   UNL     1     -11.615   8.557  72.484  1.00  0.00    -0.306 A  
HETATM   10  H   UNL     1     -11.703   7.362  74.244  1.00  0.00     0.000 HD 
HETATM   11  C   UNL     1     -12.810   9.283  72.421  1.00  0.00    -0.418 A  
HETATM   12  C   UNL     1     -12.992  10.144  71.333  1.00  0.00    -0.528 A  
HETATM   13  C   UNL     1     -12.019  10.277  70.335  1.00  0.00    -0.391 A  
HETATM   14  C   UNL     1     -10.819   9.552  70.440  1.00  0.00    -0.338 A  
HETATM   15  C   UNL     1     -10.612   8.671  71.524  1.00  0.00    -0.352 A  
BRANCH  13  16
HETATM   16  C   UNL     1     -12.252  11.202  69.161  1.00  0.00    -0.244 C  
BRANCH  16  17
HETATM   17  C   UNL     1     -11.632  12.585  69.354  1.00  0.00    -0.305 C  
HETATM   18  C   UNL     1     -11.424  13.374  68.075  1.00  0.00    -0.304 C  
HETATM   19  O   UNL     1     -11.484  14.743  68.507  1.00  0.00    -0.279 OA 
HETATM   20  C   UNL     1     -12.164  14.771  69.693  1.00  0.00    -0.270 C  
HETATM   21  N   UNL     1     -12.447  13.492  70.101  1.00  0.00    -0.257 NA 
HETATM   22  O   UNL     1     -12.439  15.780  70.318  1.00  0.00    -0.389 OA 
ENDBRANCH  16  17
ENDBRANCH  13  16
ENDBRANCH   5   6
ENDBRANCH   4   5
ENDBRANCH   2   4
TORSDOF 5
ENDMDL
MODEL      147
REMARK 921   NORMALIZED FREE ENERGY PREDICTED BY IDOCK:   -4.35 KCAL/MOL
REMARK 922        TOTAL FREE ENERGY PREDICTED BY IDOCK:   -6.06 KCAL/MOL
REMARK 923 INTER-LIGAND FREE ENERGY PREDICTED BY IDOCK:   -7.10 KCAL/MOL
REMARK 924 INTRA-LIGAND FREE ENERGY PREDICTED BY IDOCK:    1.04 KCAL/MOL
REMARK 927      BINDING AFFINITY PREDICTED BY RF-SCORE:    0.00 PKD
ROOT
HETATM    1  C   UNL     1      -6.754   9.304  65.742  1.00  0.00    -0.076 C  
HETATM    2  N   UNL     1      -7.758  10.029  66.529  1.00  0.00    -0.104 NA 
HETATM    3  C   UNL     1      -7.331  11.418  66.706  1.00  0.00    -0.135 C  
ENDROOT
BRANCH   2   4
HETATM    4  C   UNL     1      -9.075   9.928  65.862  1.00  0.00    -0.162 C  
BRANCH   4   5
HETATM    5  C   UNL     1     -10.094  10.999  66.295  1.00  0.00    -0.282 C  
BRANCH   5   6
HETATM    6  C   UNL     1     -10.704  10.710  67.637  1.00  0.00    -0.315 A  
HETATM    7  C   UNL     1     -10.890   9.467  68.205  1.00  0.00    -0.112 A  
HETATM    8  N   UNL     1     -11.462   9.633  69.437  1.00  0.00    -0.447 NA 
HETATM    9  C   UNL     1     -11.655  10.969  69.694  1.00  0.00    -0.318 A  
HETATM   10  H   UNL     1     -11.710   8.874  70.071  1.00  0.00     0.000 HD 
HETATM   11  C   UNL     1     -12.191  11.603  70.821  1.00  0.00    -0.443 A  
HETATM   12  C   UNL     1     -12.269  13.000  70.806  1.00  0.00    -0.359 A  
HETATM   13  C   UNL     1     -11.834  13.746  69.703  1.00  0.00    -0.393 A  
HETATM   14  C   UNL     1     -11.278  13.079  68.597  1.00  0.00    -0.316 A  
HETATM   15  C   UNL     1     -11.193  11.671  68.583  1.00  0.00    -0.308 A  
BRANCH  13  16
HETATM   16  C   UNL     1     -11.949  15.253  69.708  1.00  0.00    -0.374 C  
BRANCH  16  17
HETATM   17  C   UNL     1     -12.742  15.791  70.898  1.00  0.00    -0.370 C  
HETATM   18  C   UNL     1     -13.877  14.898  71.364  1.00  0.00    -0.459 C  
HETATM   19  O   UNL     1     -14.013  15.221  72.757  1.00  0.00    -0.477 OA 
HETATM   20  C   UNL     1     -12.829  15.764  73.171  1.00  0.00    -0.522 C  
HETATM   21  N   UNL     1     -11.981  15.910  72.103  1.00  0.00    -0.470 NA 
HETATM   22  O   UNL     1     -12.580  16.110  74.312  1.00  0.00    -0.656 OA 
ENDBRANCH  16  17
ENDBRANCH  13  16
ENDBRANCH   5   6
ENDBRANCH   4   5
ENDBRANCH   2   4
TORSDOF 5
ENDMDL
MODEL      148
REMARK 921   NORMALIZED FREE ENERGY PREDICTED BY IDOCK:   -4.34 KCAL/MOL
REMARK 922        TOTAL FREE ENERGY PREDICTED BY IDOCK:   -6.05 KCAL/MOL
REMARK 923 INTER-LIGAND FREE ENERGY PREDICTED BY IDOCK:   -5.60 KCAL/MOL
REMARK 924 INTRA-LIGAND FREE ENERGY PREDICTED BY IDOCK:   -0.46 KCAL/MOL
REMARK 927      BINDING AFFINITY PREDICTED BY RF-SCORE:    0.00 PKD
ROOT
HETATM    1  C   UNL     1      -6.063  14.324  70.486  1.00  0.00    -0.180 C  
HETATM    2  N   UNL     1      -6.194  14.477  69.032  1.00  0.00    -0.089 NA 
HETATM    3  C   UNL     1      -7.580  14.220  68.637  1.00  0.00    -0.126 C  
ENDROOT
BRANCH   2   4
HETATM    4  C   UNL     1      -5.738  15.826  68.634  1.00  0.00    -0.101 C  
BRANCH   4   5
HETATM    5  C   UNL     1      -5.798  16.877  69.759  1.00  0.00    -0.217 C  
BRANCH   5   6
HETATM    6  C   UNL     1      -6.113  18.255  69.250  1.00  0.00    -0.244 A  
HETATM    7  C   UNL     1      -5.368  19.397  69.454  1.00  0.00    -0.189 A  
HETATM    8  N   UNL     1      -5.984  20.439  68.817  1.00  0.00    -0.300 NA 
HETATM    9  C   UNL     1      -7.126  20.002  68.189  1.00  0.00    -0.289 A  
HETATM   10  H   UNL     1      -5.645  21.400  68.808  1.00  0.00     0.000 HD 
HETATM   11  C   UNL     1      -8.056  20.705  67.415  1.00  0.00    -0.300 A  
HETATM   12  C   UNL     1      -9.142  19.992  66.896  1.00  0.00    -0.467 A  
HETATM   13  C   UNL     1      -9.304  18.623  67.142  1.00  0.00    -0.300 A  
HETATM   14  C   UNL     1      -8.339  17.941  67.904  1.00  0.00    -0.247 A  
HETATM   15  C   UNL     1      -7.237  18.637  68.445  1.00  0.00    -0.300 A  
BRANCH  13  16
HETATM   16  C   UNL     1     -10.499  17.883  66.583  1.00  0.00    -0.318 C  
BRANCH  16  17
HETATM   17  C   UNL     1     -10.496  16.393  66.924  1.00  0.00    -0.289 C  
HETATM   18  C   UNL     1     -11.291  16.021  68.161  1.00  0.00    -0.289 C  
HETATM   19  O   UNL     1     -11.686  14.662  67.914  1.00  0.00    -0.339 OA 
HETATM   20  C   UNL     1     -11.633  14.457  66.564  1.00  0.00    -0.378 C  
HETATM   21  N   UNL     1     -11.124  15.567  65.940  1.00  0.00    -0.261 NA 
HETATM   22  O   UNL     1     -11.949  13.424  66.001  1.00  0.00    -0.372 OA 
ENDBRANCH  16  17
ENDBRANCH  13  16
ENDBRANCH   5   6
ENDBRANCH   4   5
ENDBRANCH   2   4
TORSDOF 5
ENDMDL
MODEL      149
REMARK 921   NORMALIZED FREE ENERGY PREDICTED BY IDOCK:   -4.34 KCAL/MOL
REMARK 922        TOTAL FREE ENERGY PREDICTED BY IDOCK:   -6.05 KCAL/MOL
REMARK 923 INTER-LIGAND FREE ENERGY PREDICTED BY IDOCK:   -5.69 KCAL/MOL
REMARK 924 INTRA-LIGAND FREE ENERGY PREDICTED BY IDOCK:   -0.35 KCAL/MOL
REMARK 927      BINDING AFFINITY PREDICTED BY RF-SCORE:    0.00 PKD
ROOT
HETATM    1  C   UNL     1     -12.176  15.621  73.059  1.00  0.00    -0.466 C  
HETATM    2  N   UNL     1     -12.922  14.683  72.212  1.00  0.00    -0.335 NA 
HETATM    3  C   UNL     1     -14.297  15.157  72.049  1.00  0.00    -0.586 C  
ENDROOT
BRANCH   2   4
HETATM    4  C   UNL     1     -12.225  14.526  70.918  1.00  0.00    -0.339 C  
BRANCH   4   5
HETATM    5  C   UNL     1     -12.662  15.528  69.832  1.00  0.00    -0.069 C  
BRANCH   5   6
HETATM    6  C   UNL     1     -11.653  15.664  68.728  1.00  0.00    -0.393 A  
HETATM    7  C   UNL     1     -11.016  16.822  68.334  1.00  0.00    -0.325 A  
HETATM    8  N   UNL     1     -10.164  16.523  67.307  1.00  0.00    -0.282 NA 
HETATM    9  C   UNL     1     -10.224  15.181  67.016  1.00  0.00    -0.262 A  
HETATM   10  H   UNL     1      -9.570  17.198  66.826  1.00  0.00     0.000 HD 
HETATM   11  C   UNL     1      -9.527  14.432  66.061  1.00  0.00    -0.239 A  
HETATM   12  C   UNL     1      -9.797  13.061  65.986  1.00  0.00    -0.259 A  
HETATM   13  C   UNL     1     -10.735  12.452  66.829  1.00  0.00    -0.263 A  
HETATM   14  C   UNL     1     -11.400  13.229  67.794  1.00  0.00    -0.327 A  
HETATM   15  C   UNL     1     -11.152  14.615  67.888  1.00  0.00    -0.301 A  
BRANCH  13  16
HETATM   16  C   UNL     1     -11.019  10.972  66.712  1.00  0.00    -0.279 C  
BRANCH  16  17
HETATM   17  C   UNL     1      -9.751  10.122  66.630  1.00  0.00    -0.192 C  
HETATM   18  C   UNL     1      -9.178   9.702  67.971  1.00  0.00    -0.125 C  
HETATM   19  O   UNL     1      -8.489   8.477  67.676  1.00  0.00    -0.127 OA 
HETATM   20  C   UNL     1      -9.025   7.968  66.527  1.00  0.00    -0.157 C  
HETATM   21  N   UNL     1      -9.941   8.848  66.008  1.00  0.00    -0.227 NA 
HETATM   22  O   UNL     1      -8.705   6.911  66.014  1.00  0.00    -0.141 OA 
ENDBRANCH  16  17
ENDBRANCH  13  16
ENDBRANCH   5   6
ENDBRANCH   4   5
ENDBRANCH   2   4
TORSDOF 5
ENDMDL
MODEL      150
REMARK 921   NORMALIZED FREE ENERGY PREDICTED BY IDOCK:   -4.32 KCAL/MOL
REMARK 922        TOTAL FREE ENERGY PREDICTED BY IDOCK:   -6.03 KCAL/MOL
REMARK 923 INTER-LIGAND FREE ENERGY PREDICTED BY IDOCK:   -5.52 KCAL/MOL
REMARK 924 INTRA-LIGAND FREE ENERGY PREDICTED BY IDOCK:   -0.50 KCAL/MOL
REMARK 927      BINDING AFFINITY PREDICTED BY RF-SCORE:    0.00 PKD
ROOT
HETATM    1  C   UNL     1     -12.026  13.201  63.371  1.00  0.00    -0.483 C  
HETATM    2  N   UNL     1     -12.785  13.593  64.564  1.00  0.00    -0.655 NA 
HETATM    3  C   UNL     1     -12.359  12.779  65.704  1.00  0.00    -0.382 C  
ENDROOT
BRANCH   2   4
HETATM    4  C   UNL     1     -12.606  15.040  64.809  1.00  0.00     0.057 C  
BRANCH   4   5
HETATM    5  C   UNL     1     -11.203  15.576  64.465  1.00  0.00    -0.327 C  
BRANCH   5   6
HETATM    6  C   UNL     1     -10.532  16.239  65.634  1.00  0.00    -0.386 A  
HETATM    7  C   UNL     1     -10.498  17.592  65.904  1.00  0.00    -0.249 A  
HETATM    8  N   UNL     1      -9.802  17.787  67.065  1.00  0.00    -0.296 NA 
HETATM    9  C   UNL     1      -9.377  16.581  67.572  1.00  0.00    -0.218 A  
HETATM   10  H   UNL     1      -9.624  18.694  67.493  1.00  0.00     0.000 HD 
HETATM   11  C   UNL     1      -8.652  16.296  68.733  1.00  0.00    -0.240 A  
HETATM   12  C   UNL     1      -8.354  14.955  69.001  1.00  0.00    -0.175 A  
HETATM   13  C   UNL     1      -8.758  13.929  68.139  1.00  0.00    -0.182 A  
HETATM   14  C   UNL     1      -9.507  14.247  66.992  1.00  0.00    -0.259 A  
HETATM   15  C   UNL     1      -9.817  15.591  66.694  1.00  0.00    -0.268 A  
BRANCH  13  16
HETATM   16  C   UNL     1      -8.405  12.491  68.445  1.00  0.00    -0.132 C  
BRANCH  16  17
HETATM   17  C   UNL     1      -9.589  11.536  68.294  1.00  0.00    -0.189 C  
HETATM   18  C   UNL     1      -9.395  10.175  68.937  1.00  0.00    -0.179 C  
HETATM   19  O   UNL     1     -10.733   9.753  69.246  1.00  0.00    -0.212 OA 
HETATM   20  C   UNL     1     -11.515  10.873  69.307  1.00  0.00    -0.302 C  
HETATM   21  N   UNL     1     -10.782  11.976  68.948  1.00  0.00    -0.211 NA 
HETATM   22  O   UNL     1     -12.698  10.885  69.594  1.00  0.00    -0.235 OA 
ENDBRANCH  16  17
ENDBRANCH  13  16
ENDBRANCH   5   6
ENDBRANCH   4   5
ENDBRANCH   2   4
TORSDOF 5
ENDMDL
MODEL      151
REMARK 921   NORMALIZED FREE ENERGY PREDICTED BY IDOCK:   -4.30 KCAL/MOL
REMARK 922        TOTAL FREE ENERGY PREDICTED BY IDOCK:   -5.99 KCAL/MOL
REMARK 923 INTER-LIGAND FREE ENERGY PREDICTED BY IDOCK:   -5.68 KCAL/MOL
REMARK 924 INTRA-LIGAND FREE ENERGY PREDICTED BY IDOCK:   -0.31 KCAL/MOL
REMARK 927      BINDING AFFINITY PREDICTED BY RF-SCORE:    0.00 PKD
ROOT
HETATM    1  C   UNL     1      -7.467  18.237  66.130  1.00  0.00    -0.256 C  
HETATM    2  N   UNL     1      -8.446  18.267  67.223  1.00  0.00    -0.247 NA 
HETATM    3  C   UNL     1      -9.005  19.615  67.342  1.00  0.00    -0.315 C  
ENDROOT
BRANCH   2   4
HETATM    4  C   UNL     1      -9.489  17.247  66.980  1.00  0.00    -0.261 C  
BRANCH   4   5
HETATM    5  C   UNL     1      -9.111  16.187  65.928  1.00  0.00    -0.268 C  
BRANCH   5   6
HETATM    6  C   UNL     1     -10.312  15.551  65.288  1.00  0.00    -0.416 A  
HETATM    7  C   UNL     1     -11.303  16.196  64.577  1.00  0.00    -0.267 A  
HETATM    8  N   UNL     1     -12.207  15.265  64.148  1.00  0.00    -0.845 NA 
HETATM    9  C   UNL     1     -11.829  14.009  64.562  1.00  0.00    -0.434 A  
HETATM   10  H   UNL     1     -13.042  15.471  63.601  1.00  0.00     0.000 HD 
HETATM   11  C   UNL     1     -12.435  12.767  64.347  1.00  0.00    -0.476 A  
HETATM   12  C   UNL     1     -11.818  11.638  64.898  1.00  0.00    -0.018 A  
HETATM   13  C   UNL     1     -10.638  11.740  65.645  1.00  0.00    -0.314 A  
HETATM   14  C   UNL     1     -10.041  13.000  65.822  1.00  0.00    -0.294 A  
HETATM   15  C   UNL     1     -10.645  14.156  65.283  1.00  0.00    -0.387 A  
BRANCH  13  16
HETATM   16  C   UNL     1     -10.005  10.504  66.244  1.00  0.00    -0.276 C  
BRANCH  16  17
HETATM   17  C   UNL     1      -8.486  10.471  66.087  1.00  0.00    -0.153 C  
HETATM   18  C   UNL     1      -7.837   9.148  66.446  1.00  0.00    -0.100 C  
HETATM   19  O   UNL     1      -6.643   9.128  65.647  1.00  0.00    -0.067 OA 
HETATM   20  C   UNL     1      -6.834   9.986  64.600  1.00  0.00    -0.130 C  
HETATM   21  N   UNL     1      -8.033  10.637  64.741  1.00  0.00    -0.035 NA 
HETATM   22  O   UNL     1      -6.037  10.178  63.699  1.00  0.00    -0.124 OA 
ENDBRANCH  16  17
ENDBRANCH  13  16
ENDBRANCH   5   6
ENDBRANCH   4   5
ENDBRANCH   2   4
TORSDOF 5
ENDMDL
MODEL      152
REMARK 921   NORMALIZED FREE ENERGY PREDICTED BY IDOCK:   -4.30 KCAL/MOL
REMARK 922        TOTAL FREE ENERGY PREDICTED BY IDOCK:   -5.99 KCAL/MOL
REMARK 923 INTER-LIGAND FREE ENERGY PREDICTED BY IDOCK:   -5.93 KCAL/MOL
REMARK 924 INTRA-LIGAND FREE ENERGY PREDICTED BY IDOCK:   -0.06 KCAL/MOL
REMARK 927      BINDING AFFINITY PREDICTED BY RF-SCORE:    0.00 PKD
ROOT
HETATM    1  C   UNL     1     -10.662  15.471  68.820  1.00  0.00    -0.249 C  
HETATM    2  N   UNL     1     -11.556  14.970  67.770  1.00  0.00    -0.336 NA 
HETATM    3  C   UNL     1     -10.895  15.083  66.469  1.00  0.00    -0.320 C  
ENDROOT
BRANCH   2   4
HETATM    4  C   UNL     1     -11.951  13.579  68.081  1.00  0.00    -0.341 C  
BRANCH   4   5
HETATM    5  C   UNL     1     -11.018  12.856  69.070  1.00  0.00    -0.244 C  
BRANCH   5   6
HETATM    6  C   UNL     1     -11.767  12.050  70.091  1.00  0.00    -0.316 A  
HETATM    7  C   UNL     1     -12.711  12.521  70.980  1.00  0.00    -0.225 A  
HETATM    8  N   UNL     1     -13.166  11.472  71.729  1.00  0.00    -0.432 NA 
HETATM    9  C   UNL     1     -12.539  10.309  71.347  1.00  0.00    -0.434 A  
HETATM   10  H   UNL     1     -13.869  11.542  72.464  1.00  0.00     0.000 HD 
HETATM   11  C   UNL     1     -12.696   9.002  71.821  1.00  0.00    -0.431 A  
HETATM   12  C   UNL     1     -11.911   8.001  71.239  1.00  0.00    -0.321 A  
HETATM   13  C   UNL     1     -10.993   8.289  70.221  1.00  0.00    -0.233 A  
HETATM   14  C   UNL     1     -10.878   9.609  69.751  1.00  0.00    -0.274 A  
HETATM   15  C   UNL     1     -11.653  10.639  70.324  1.00  0.00    -0.424 A  
BRANCH  13  16
HETATM   16  C   UNL     1     -10.145   7.188  69.625  1.00  0.00    -0.196 C  
BRANCH  16  17
HETATM   17  C   UNL     1     -10.532   5.795  70.120  1.00  0.00    -0.278 C  
HETATM   18  C   UNL     1      -9.863   4.649  69.385  1.00  0.00    -0.202 C  
HETATM   19  O   UNL     1      -9.831   3.594  70.359  1.00  0.00    -0.173 OA 
HETATM   20  C   UNL     1      -9.930   4.171  71.594  1.00  0.00    -0.170 C  
HETATM   21  N   UNL     1     -10.134   5.521  71.465  1.00  0.00    -0.198 NA 
HETATM   22  O   UNL     1      -9.889   3.569  72.652  1.00  0.00    -0.134 OA 
ENDBRANCH  16  17
ENDBRANCH  13  16
ENDBRANCH   5   6
ENDBRANCH   4   5
ENDBRANCH   2   4
TORSDOF 5
ENDMDL
MODEL      153
REMARK 921   NORMALIZED FREE ENERGY PREDICTED BY IDOCK:   -4.29 KCAL/MOL
REMARK 922        TOTAL FREE ENERGY PREDICTED BY IDOCK:   -5.98 KCAL/MOL
REMARK 923 INTER-LIGAND FREE ENERGY PREDICTED BY IDOCK:   -5.38 KCAL/MOL
REMARK 924 INTRA-LIGAND FREE ENERGY PREDICTED BY IDOCK:   -0.61 KCAL/MOL
REMARK 927      BINDING AFFINITY PREDICTED BY RF-SCORE:    0.00 PKD
ROOT
HETATM    1  C   UNL     1     -10.659  18.825  66.547  1.00  0.00    -0.374 C  
HETATM    2  N   UNL     1      -9.776  19.428  67.552  1.00  0.00    -0.322 NA 
HETATM    3  C   UNL     1     -10.207  19.021  68.890  1.00  0.00    -0.221 C  
ENDROOT
BRANCH   2   4
HETATM    4  C   UNL     1      -8.376  19.045  67.272  1.00  0.00    -0.276 C  
BRANCH   4   5
HETATM    5  C   UNL     1      -7.704  18.221  68.387  1.00  0.00    -0.312 C  
BRANCH   5   6
HETATM    6  C   UNL     1      -7.315  16.842  67.935  1.00  0.00    -0.176 A  
HETATM    7  C   UNL     1      -6.084  16.453  67.449  1.00  0.00    -0.167 A  
HETATM    8  N   UNL     1      -6.132  15.117  67.163  1.00  0.00    -0.202 NA 
HETATM    9  C   UNL     1      -7.378  14.613  67.456  1.00  0.00    -0.197 A  
HETATM   10  H   UNL     1      -5.357  14.573  66.787  1.00  0.00     0.000 HD 
HETATM   11  C   UNL     1      -7.875  13.310  67.339  1.00  0.00    -0.159 A  
HETATM   12  C   UNL     1      -9.203  13.085  67.716  1.00  0.00    -0.200 A  
HETATM   13  C   UNL     1     -10.016  14.122  68.189  1.00  0.00    -0.232 A  
HETATM   14  C   UNL     1      -9.479  15.415  68.317  1.00  0.00    -0.200 A  
HETATM   15  C   UNL     1      -8.143  15.672  67.939  1.00  0.00    -0.149 A  
BRANCH  13  16
HETATM   16  C   UNL     1     -11.454  13.851  68.570  1.00  0.00    -0.346 C  
BRANCH  16  17
HETATM   17  C   UNL     1     -11.599  13.213  69.951  1.00  0.00    -0.185 C  
HETATM   18  C   UNL     1     -12.558  13.927  70.885  1.00  0.00    -0.361 C  
HETATM   19  O   UNL     1     -13.019  12.885  71.760  1.00  0.00    -0.362 OA 
HETATM   20  C   UNL     1     -12.826  11.694  71.118  1.00  0.00    -0.294 C  
HETATM   21  N   UNL     1     -12.169  11.901  69.933  1.00  0.00    -0.238 NA 
HETATM   22  O   UNL     1     -13.149  10.604  71.556  1.00  0.00    -0.405 OA 
ENDBRANCH  16  17
ENDBRANCH  13  16
ENDBRANCH   5   6
ENDBRANCH   4   5
ENDBRANCH   2   4
TORSDOF 5
ENDMDL
MODEL      154
REMARK 921   NORMALIZED FREE ENERGY PREDICTED BY IDOCK:   -4.28 KCAL/MOL
REMARK 922        TOTAL FREE ENERGY PREDICTED BY IDOCK:   -5.97 KCAL/MOL
REMARK 923 INTER-LIGAND FREE ENERGY PREDICTED BY IDOCK:   -5.80 KCAL/MOL
REMARK 924 INTRA-LIGAND FREE ENERGY PREDICTED BY IDOCK:   -0.17 KCAL/MOL
REMARK 927      BINDING AFFINITY PREDICTED BY RF-SCORE:    0.00 PKD
ROOT
HETATM    1  C   UNL     1     -11.999  15.197  64.110  1.00  0.00    -0.170 C  
HETATM    2  N   UNL     1     -11.707  13.976  64.870  1.00  0.00    -0.361 NA 
HETATM    3  C   UNL     1     -12.892  13.118  64.890  1.00  0.00    -0.280 C  
ENDROOT
BRANCH   2   4
HETATM    4  C   UNL     1     -10.533  13.298  64.281  1.00  0.00    -0.352 C  
BRANCH   4   5
HETATM    5  C   UNL     1     -10.647  11.763  64.218  1.00  0.00    -0.386 C  
BRANCH   5   6
HETATM    6  C   UNL     1      -9.678  11.071  65.134  1.00  0.00    -0.302 A  
HETATM    7  C   UNL     1      -8.415  10.624  64.808  1.00  0.00    -0.100 A  
HETATM    8  N   UNL     1      -7.851  10.063  65.921  1.00  0.00    -0.117 NA 
HETATM    9  C   UNL     1      -8.723  10.135  66.982  1.00  0.00    -0.132 A  
HETATM   10  H   UNL     1      -6.920   9.651  65.959  1.00  0.00     0.000 HD 
HETATM   11  C   UNL     1      -8.571   9.707  68.305  1.00  0.00    -0.119 A  
HETATM   12  C   UNL     1      -9.643   9.911  69.182  1.00  0.00    -0.204 A  
HETATM   13  C   UNL     1     -10.831  10.517  68.757  1.00  0.00    -0.269 A  
HETATM   14  C   UNL     1     -10.942  10.958  67.426  1.00  0.00    -0.353 A  
HETATM   15  C   UNL     1      -9.880  10.759  66.519  1.00  0.00    -0.246 A  
BRANCH  13  16
HETATM   16  C   UNL     1     -11.979  10.706  69.722  1.00  0.00    -0.363 C  
BRANCH  16  17
HETATM   17  C   UNL     1     -11.854   9.848  70.981  1.00  0.00    -0.376 C  
HETATM   18  C   UNL     1     -13.043   9.917  71.920  1.00  0.00    -0.459 C  
HETATM   19  O   UNL     1     -13.018   8.649  72.593  1.00  0.00    -0.352 OA 
HETATM   20  C   UNL     1     -12.314   7.779  71.808  1.00  0.00    -0.317 C  
HETATM   21  N   UNL     1     -11.794   8.442  70.725  1.00  0.00    -0.222 NA 
HETATM   22  O   UNL     1     -12.137   6.600  72.055  1.00  0.00    -0.321 OA 
ENDBRANCH  16  17
ENDBRANCH  13  16
ENDBRANCH   5   6
ENDBRANCH   4   5
ENDBRANCH   2   4
TORSDOF 5
ENDMDL
MODEL      155
REMARK 921   NORMALIZED FREE ENERGY PREDICTED BY IDOCK:   -4.27 KCAL/MOL
REMARK 922        TOTAL FREE ENERGY PREDICTED BY IDOCK:   -5.95 KCAL/MOL
REMARK 923 INTER-LIGAND FREE ENERGY PREDICTED BY IDOCK:   -5.37 KCAL/MOL
REMARK 924 INTRA-LIGAND FREE ENERGY PREDICTED BY IDOCK:   -0.58 KCAL/MOL
REMARK 927      BINDING AFFINITY PREDICTED BY RF-SCORE:    0.00 PKD
ROOT
HETATM    1  C   UNL     1     -13.044  10.933  71.817  1.00  0.00    -0.459 C  
HETATM    2  N   UNL     1     -12.420  10.296  70.651  1.00  0.00    -0.320 NA 
HETATM    3  C   UNL     1     -12.059  11.319  69.669  1.00  0.00    -0.322 C  
ENDROOT
BRANCH   2   4
HETATM    4  C   UNL     1     -11.253   9.501  71.089  1.00  0.00    -0.376 C  
BRANCH   4   5
HETATM    5  C   UNL     1     -11.092   8.150  70.367  1.00  0.00    -0.239 C  
BRANCH   5   6
HETATM    6  C   UNL     1      -9.799   8.047  69.611  1.00  0.00    -0.184 A  
HETATM    7  C   UNL     1      -8.651   7.404  70.029  1.00  0.00    -0.140 A  
HETATM    8  N   UNL     1      -7.704   7.526  69.050  1.00  0.00    -0.115 NA 
HETATM    9  C   UNL     1      -8.208   8.237  67.987  1.00  0.00    -0.128 A  
HETATM   10  H   UNL     1      -6.760   7.144  69.102  1.00  0.00     0.000 HD 
HETATM   11  C   UNL     1      -7.609   8.591  66.773  1.00  0.00    -0.090 A  
HETATM   12  C   UNL     1      -8.371   9.333  65.863  1.00  0.00    -0.122 A  
HETATM   13  C   UNL     1      -9.687   9.717  66.152  1.00  0.00    -0.317 A  
HETATM   14  C   UNL     1     -10.267   9.324  67.372  1.00  0.00    -0.304 A  
HETATM   15  C   UNL     1      -9.519   8.581  68.310  1.00  0.00    -0.143 A  
BRANCH  13  16
HETATM   16  C   UNL     1     -10.479  10.534  65.158  1.00  0.00    -0.225 C  
BRANCH  16  17
HETATM   17  C   UNL     1     -10.077  12.008  65.135  1.00  0.00    -0.266 C  
HETATM   18  C   UNL     1     -10.554  12.780  63.920  1.00  0.00    -0.395 C  
HETATM   19  O   UNL     1     -10.659  14.131  64.396  1.00  0.00    -0.348 OA 
HETATM   20  C   UNL     1     -10.780  14.081  65.756  1.00  0.00    -0.293 C  
HETATM   21  N   UNL     1     -10.649  12.786  66.190  1.00  0.00    -0.263 NA 
HETATM   22  O   UNL     1     -10.935  15.047  66.481  1.00  0.00    -0.321 OA 
ENDBRANCH  16  17
ENDBRANCH  13  16
ENDBRANCH   5   6
ENDBRANCH   4   5
ENDBRANCH   2   4
TORSDOF 5
ENDMDL
MODEL      156
REMARK 921   NORMALIZED FREE ENERGY PREDICTED BY IDOCK:   -4.26 KCAL/MOL
REMARK 922        TOTAL FREE ENERGY PREDICTED BY IDOCK:   -5.95 KCAL/MOL
REMARK 923 INTER-LIGAND FREE ENERGY PREDICTED BY IDOCK:   -5.58 KCAL/MOL
REMARK 924 INTRA-LIGAND FREE ENERGY PREDICTED BY IDOCK:   -0.37 KCAL/MOL
REMARK 927      BINDING AFFINITY PREDICTED BY RF-SCORE:    0.00 PKD
ROOT
HETATM    1  C   UNL     1     -12.419  14.379  64.722  1.00  0.00    -0.357 C  
HETATM    2  N   UNL     1     -11.094  14.233  65.336  1.00  0.00    -0.314 NA 
HETATM    3  C   UNL     1     -10.433  15.538  65.387  1.00  0.00    -0.405 C  
ENDROOT
BRANCH   2   4
HETATM    4  C   UNL     1     -11.235  13.622  66.674  1.00  0.00    -0.313 C  
BRANCH   4   5
HETATM    5  C   UNL     1     -11.520  12.108  66.658  1.00  0.00    -0.426 C  
BRANCH   5   6
HETATM    6  C   UNL     1     -10.268  11.283  66.570  1.00  0.00    -0.269 A  
HETATM    7  C   UNL     1      -9.338  11.307  65.552  1.00  0.00    -0.221 A  
HETATM    8  N   UNL     1      -8.341  10.421  65.852  1.00  0.00    -0.146 NA 
HETATM    9  C   UNL     1      -8.595   9.811  67.058  1.00  0.00    -0.124 A  
HETATM   10  H   UNL     1      -7.526  10.239  65.267  1.00  0.00     0.000 HD 
HETATM   11  C   UNL     1      -7.852   8.857  67.762  1.00  0.00    -0.102 A  
HETATM   12  C   UNL     1      -8.363   8.406  68.984  1.00  0.00    -0.119 A  
HETATM   13  C   UNL     1      -9.578   8.883  69.490  1.00  0.00    -0.171 A  
HETATM   14  C   UNL     1     -10.288   9.860  68.770  1.00  0.00    -0.222 A  
HETATM   15  C   UNL     1      -9.799  10.328  67.532  1.00  0.00    -0.204 A  
BRANCH  13  16
HETATM   16  C   UNL     1     -10.114   8.363  70.805  1.00  0.00    -0.226 C  
BRANCH  16  17
HETATM   17  C   UNL     1     -11.641   8.305  70.850  1.00  0.00    -0.262 C  
HETATM   18  C   UNL     1     -12.211   7.039  71.461  1.00  0.00    -0.368 C  
HETATM   19  O   UNL     1     -13.483   7.458  71.982  1.00  0.00    -0.239 OA 
HETATM   20  C   UNL     1     -13.429   8.812  72.161  1.00  0.00    -0.427 C  
HETATM   21  N   UNL     1     -12.240   9.300  71.683  1.00  0.00    -0.346 NA 
HETATM   22  O   UNL     1     -14.323   9.491  72.633  1.00  0.00    -0.319 OA 
ENDBRANCH  16  17
ENDBRANCH  13  16
ENDBRANCH   5   6
ENDBRANCH   4   5
ENDBRANCH   2   4
TORSDOF 5
ENDMDL
MODEL      157
REMARK 921   NORMALIZED FREE ENERGY PREDICTED BY IDOCK:   -4.25 KCAL/MOL
REMARK 922        TOTAL FREE ENERGY PREDICTED BY IDOCK:   -5.93 KCAL/MOL
REMARK 923 INTER-LIGAND FREE ENERGY PREDICTED BY IDOCK:   -5.76 KCAL/MOL
REMARK 924 INTRA-LIGAND FREE ENERGY PREDICTED BY IDOCK:   -0.17 KCAL/MOL
REMARK 927      BINDING AFFINITY PREDICTED BY RF-SCORE:    0.00 PKD
ROOT
HETATM    1  C   UNL     1      -7.773  19.609  68.930  1.00  0.00    -0.291 C  
HETATM    2  N   UNL     1      -8.327  19.973  67.620  1.00  0.00    -0.320 NA 
HETATM    3  C   UNL     1      -7.306  19.784  66.589  1.00  0.00    -0.250 C  
ENDROOT
BRANCH   2   4
HETATM    4  C   UNL     1      -9.543  19.174  67.359  1.00  0.00    -0.311 C  
BRANCH   4   5
HETATM    5  C   UNL     1      -9.282  17.676  67.114  1.00  0.00    -0.245 C  
BRANCH   5   6
HETATM    6  C   UNL     1     -10.081  16.790  68.027  1.00  0.00    -0.284 A  
HETATM    7  C   UNL     1     -10.484  17.086  69.313  1.00  0.00    -0.293 A  
HETATM    8  N   UNL     1     -11.202  16.027  69.798  1.00  0.00    -0.324 NA 
HETATM    9  C   UNL     1     -11.282  15.034  68.851  1.00  0.00    -0.277 A  
HETATM   10  H   UNL     1     -11.616  15.981  70.728  1.00  0.00     0.000 HD 
HETATM   11  C   UNL     1     -11.920  13.790  68.899  1.00  0.00    -0.394 A  
HETATM   12  C   UNL     1     -11.833  12.970  67.769  1.00  0.00    -0.395 A  
HETATM   13  C   UNL     1     -11.129  13.370  66.627  1.00  0.00    -0.310 A  
HETATM   14  C   UNL     1     -10.519  14.637  66.601  1.00  0.00    -0.278 A  
HETATM   15  C   UNL     1     -10.586  15.482  67.730  1.00  0.00    -0.281 A  
BRANCH  13  16
HETATM   16  C   UNL     1     -11.036  12.454  65.427  1.00  0.00    -0.344 C  
BRANCH  16  17
HETATM   17  C   UNL     1      -9.878  11.461  65.517  1.00  0.00    -0.231 C  
HETATM   18  C   UNL     1      -9.031  11.584  66.770  1.00  0.00    -0.181 C  
HETATM   19  O   UNL     1      -8.505  10.260  66.955  1.00  0.00    -0.125 OA 
HETATM   20  C   UNL     1      -9.327   9.394  66.290  1.00  0.00    -0.198 C  
HETATM   21  N   UNL     1     -10.285  10.093  65.600  1.00  0.00    -0.256 NA 
HETATM   22  O   UNL     1      -9.202   8.182  66.275  1.00  0.00    -0.177 OA 
ENDBRANCH  16  17
ENDBRANCH  13  16
ENDBRANCH   5   6
ENDBRANCH   4   5
ENDBRANCH   2   4
TORSDOF 5
ENDMDL
MODEL      158
REMARK 921   NORMALIZED FREE ENERGY PREDICTED BY IDOCK:   -4.23 KCAL/MOL
REMARK 922        TOTAL FREE ENERGY PREDICTED BY IDOCK:   -5.90 KCAL/MOL
REMARK 923 INTER-LIGAND FREE ENERGY PREDICTED BY IDOCK:   -5.20 KCAL/MOL
REMARK 924 INTRA-LIGAND FREE ENERGY PREDICTED BY IDOCK:   -0.69 KCAL/MOL
REMARK 927      BINDING AFFINITY PREDICTED BY RF-SCORE:    0.00 PKD
ROOT
HETATM    1  C   UNL     1      -9.634  10.546  67.678  1.00  0.00    -0.157 C  
HETATM    2  N   UNL     1      -8.276  10.006  67.549  1.00  0.00    -0.114 NA 
HETATM    3  C   UNL     1      -7.768  10.276  66.203  1.00  0.00    -0.123 C  
ENDROOT
BRANCH   2   4
HETATM    4  C   UNL     1      -7.413  10.586  68.601  1.00  0.00    -0.095 C  
BRANCH   4   5
HETATM    5  C   UNL     1      -6.563  11.785  68.140  1.00  0.00    -0.056 C  
BRANCH   5   6
HETATM    6  C   UNL     1      -6.986  13.076  68.779  1.00  0.00    -0.103 A  
HETATM    7  C   UNL     1      -6.506  13.606  69.959  1.00  0.00    -0.002 A  
HETATM    8  N   UNL     1      -7.134  14.799  70.188  1.00  0.00    -0.331 NA 
HETATM    9  C   UNL     1      -8.023  15.069  69.175  1.00  0.00    -0.195 A  
HETATM   10  H   UNL     1      -6.968  15.400  70.994  1.00  0.00     0.000 HD 
HETATM   11  C   UNL     1      -8.866  16.169  68.984  1.00  0.00    -0.251 A  
HETATM   12  C   UNL     1      -9.678  16.176  67.844  1.00  0.00    -0.225 A  
HETATM   13  C   UNL     1      -9.658  15.121  66.924  1.00  0.00    -0.252 A  
HETATM   14  C   UNL     1      -8.781  14.041  67.133  1.00  0.00    -0.234 A  
HETATM   15  C   UNL     1      -7.956  14.005  68.277  1.00  0.00    -0.146 A  
BRANCH  13  16
HETATM   16  C   UNL     1     -10.561  15.148  65.711  1.00  0.00    -0.364 C  
BRANCH  16  17
HETATM   17  C   UNL     1     -11.241  13.806  65.439  1.00  0.00    -0.302 C  
HETATM   18  C   UNL     1     -12.647  13.682  65.994  1.00  0.00    -0.386 C  
HETATM   19  O   UNL     1     -13.274  12.731  65.119  1.00  0.00    -0.686 OA 
HETATM   20  C   UNL     1     -12.575  12.729  63.944  1.00  0.00    -0.289 C  
HETATM   21  N   UNL     1     -11.474  13.539  64.054  1.00  0.00    -0.359 NA 
HETATM   22  O   UNL     1     -12.862  12.071  62.961  1.00  0.00    -0.537 OA 
ENDBRANCH  16  17
ENDBRANCH  13  16
ENDBRANCH   5   6
ENDBRANCH   4   5
ENDBRANCH   2   4
TORSDOF 5
ENDMDL
MODEL      159
REMARK 921   NORMALIZED FREE ENERGY PREDICTED BY IDOCK:   -4.22 KCAL/MOL
REMARK 922        TOTAL FREE ENERGY PREDICTED BY IDOCK:   -5.89 KCAL/MOL
REMARK 923 INTER-LIGAND FREE ENERGY PREDICTED BY IDOCK:   -5.54 KCAL/MOL
REMARK 924 INTRA-LIGAND FREE ENERGY PREDICTED BY IDOCK:   -0.35 KCAL/MOL
REMARK 927      BINDING AFFINITY PREDICTED BY RF-SCORE:    0.00 PKD
ROOT
HETATM    1  C   UNL     1     -10.864  15.521  65.163  1.00  0.00    -0.436 C  
HETATM    2  N   UNL     1     -11.970  14.556  65.134  1.00  0.00    -0.376 NA 
HETATM    3  C   UNL     1     -11.960  13.840  63.857  1.00  0.00    -0.371 C  
ENDROOT
BRANCH   2   4
HETATM    4  C   UNL     1     -11.858  13.642  66.291  1.00  0.00    -0.392 C  
BRANCH   4   5
HETATM    5  C   UNL     1     -11.588  12.172  65.919  1.00  0.00    -0.425 C  
BRANCH   5   6
HETATM    6  C   UNL     1     -10.203  11.724  66.290  1.00  0.00    -0.255 A  
HETATM    7  C   UNL     1      -9.091  12.527  66.437  1.00  0.00    -0.127 A  
HETATM    8  N   UNL     1      -8.031  11.741  66.794  1.00  0.00    -0.270 NA 
HETATM    9  C   UNL     1      -8.424  10.427  66.888  1.00  0.00    -0.124 A  
HETATM   10  H   UNL     1      -7.085  12.080  66.965  1.00  0.00     0.000 HD 
HETATM   11  C   UNL     1      -7.690   9.288  67.233  1.00  0.00    -0.095 A  
HETATM   12  C   UNL     1      -8.361   8.059  67.244  1.00  0.00    -0.122 A  
HETATM   13  C   UNL     1      -9.719   7.965  66.918  1.00  0.00    -0.285 A  
HETATM   14  C   UNL     1     -10.435   9.133  66.599  1.00  0.00    -0.237 A  
HETATM   15  C   UNL     1      -9.781  10.384  66.574  1.00  0.00    -0.241 A  
BRANCH  13  16
HETATM   16  C   UNL     1     -10.413   6.621  66.921  1.00  0.00    -0.349 C  
BRANCH  16  17
HETATM   17  C   UNL     1     -10.944   6.222  68.297  1.00  0.00    -0.321 C  
HETATM   18  C   UNL     1     -10.141   5.144  69.001  1.00  0.00    -0.187 C  
HETATM   19  O   UNL     1     -10.376   5.402  70.394  1.00  0.00    -0.248 OA 
HETATM   20  C   UNL     1     -10.764   6.708  70.512  1.00  0.00    -0.247 C  
HETATM   21  N   UNL     1     -10.897   7.270  69.268  1.00  0.00    -0.197 NA 
HETATM   22  O   UNL     1     -11.000   7.275  71.564  1.00  0.00    -0.232 OA 
ENDBRANCH  16  17
ENDBRANCH  13  16
ENDBRANCH   5   6
ENDBRANCH   4   5
ENDBRANCH   2   4
TORSDOF 5
ENDMDL
MODEL      160
REMARK 921   NORMALIZED FREE ENERGY PREDICTED BY IDOCK:   -4.21 KCAL/MOL
REMARK 922        TOTAL FREE ENERGY PREDICTED BY IDOCK:   -5.88 KCAL/MOL
REMARK 923 INTER-LIGAND FREE ENERGY PREDICTED BY IDOCK:   -5.61 KCAL/MOL
REMARK 924 INTRA-LIGAND FREE ENERGY PREDICTED BY IDOCK:   -0.27 KCAL/MOL
REMARK 927      BINDING AFFINITY PREDICTED BY RF-SCORE:    0.00 PKD
ROOT
HETATM    1  C   UNL     1      -9.071   7.328  66.668  1.00  0.00    -0.154 C  
HETATM    2  N   UNL     1      -9.251   8.783  66.731  1.00  0.00    -0.160 NA 
HETATM    3  C   UNL     1      -8.222   9.367  67.593  1.00  0.00    -0.114 C  
ENDROOT
BRANCH   2   4
HETATM    4  C   UNL     1      -9.222   9.343  65.363  1.00  0.00    -0.244 C  
BRANCH   4   5
HETATM    5  C   UNL     1      -8.931  10.855  65.298  1.00  0.00    -0.202 C  
BRANCH   5   6
HETATM    6  C   UNL     1     -10.152  11.692  65.556  1.00  0.00    -0.285 A  
HETATM    7  C   UNL     1     -11.421  11.467  65.065  1.00  0.00    -0.031 A  
HETATM    8  N   UNL     1     -12.251  12.444  65.541  1.00  0.00    -0.604 NA 
HETATM    9  C   UNL     1     -11.550  13.313  66.345  1.00  0.00    -0.347 A  
HETATM   10  H   UNL     1     -13.246  12.518  65.331  1.00  0.00     0.000 HD 
HETATM   11  C   UNL     1     -11.984  14.440  67.049  1.00  0.00    -0.424 A  
HETATM   12  C   UNL     1     -11.034  15.147  67.795  1.00  0.00    -0.306 A  
HETATM   13  C   UNL     1      -9.692  14.749  67.836  1.00  0.00    -0.211 A  
HETATM   14  C   UNL     1      -9.293  13.597  67.136  1.00  0.00    -0.240 A  
HETATM   15  C   UNL     1     -10.229  12.869  66.371  1.00  0.00    -0.273 A  
BRANCH  13  16
HETATM   16  C   UNL     1      -8.685  15.544  68.636  1.00  0.00    -0.188 C  
BRANCH  16  17
HETATM   17  C   UNL     1      -8.315  16.875  67.983  1.00  0.00    -0.204 C  
HETATM   18  C   UNL     1      -8.325  16.865  66.466  1.00  0.00    -0.280 C  
HETATM   19  O   UNL     1      -8.606  18.230  66.120  1.00  0.00    -0.455 OA 
HETATM   20  C   UNL     1      -9.213  18.812  67.198  1.00  0.00    -0.287 C  
HETATM   21  N   UNL     1      -9.237  17.934  68.251  1.00  0.00    -0.275 NA 
HETATM   22  O   UNL     1      -9.629  19.956  67.232  1.00  0.00    -0.331 OA 
ENDBRANCH  16  17
ENDBRANCH  13  16
ENDBRANCH   5   6
ENDBRANCH   4   5
ENDBRANCH   2   4
TORSDOF 5
ENDMDL
MODEL      161
REMARK 921   NORMALIZED FREE ENERGY PREDICTED BY IDOCK:   -4.21 KCAL/MOL
REMARK 922        TOTAL FREE ENERGY PREDICTED BY IDOCK:   -5.88 KCAL/MOL
REMARK 923 INTER-LIGAND FREE ENERGY PREDICTED BY IDOCK:   -5.23 KCAL/MOL
REMARK 924 INTRA-LIGAND FREE ENERGY PREDICTED BY IDOCK:   -0.65 KCAL/MOL
REMARK 927      BINDING AFFINITY PREDICTED BY RF-SCORE:    0.00 PKD
ROOT
HETATM    1  C   UNL     1     -12.446  12.273  63.763  1.00  0.00    -0.515 C  
HETATM    2  N   UNL     1     -12.566  12.543  65.200  1.00  0.00    -0.650 NA 
HETATM    3  C   UNL     1     -11.518  11.818  65.922  1.00  0.00    -0.207 C  
ENDROOT
BRANCH   2   4
HETATM    4  C   UNL     1     -12.504  14.001  65.435  1.00  0.00    -0.498 C  
BRANCH   4   5
HETATM    5  C   UNL     1     -11.659  14.778  64.408  1.00  0.00    -0.304 C  
BRANCH   5   6
HETATM    6  C   UNL     1     -10.787  15.823  65.045  1.00  0.00    -0.461 A  
HETATM    7  C   UNL     1     -10.915  17.190  64.915  1.00  0.00     0.214 A  
HETATM    8  N   UNL     1      -9.938  17.791  65.660  1.00  0.00    -0.528 NA 
HETATM    9  C   UNL     1      -9.166  16.840  66.285  1.00  0.00    -0.279 A  
HETATM   10  H   UNL     1      -9.802  18.798  65.740  1.00  0.00     0.000 HD 
HETATM   11  C   UNL     1      -8.074  16.989  67.148  1.00  0.00    -0.216 A  
HETATM   12  C   UNL     1      -7.470  15.826  67.639  1.00  0.00    -0.180 A  
HETATM   13  C   UNL     1      -7.933  14.553  67.281  1.00  0.00    -0.216 A  
HETATM   14  C   UNL     1      -9.047  14.439  66.431  1.00  0.00    -0.192 A  
HETATM   15  C   UNL     1      -9.671  15.595  65.916  1.00  0.00    -0.388 A  
BRANCH  13  16
HETATM   16  C   UNL     1      -7.248  13.315  67.813  1.00  0.00    -0.151 C  
BRANCH  16  17
HETATM   17  C   UNL     1      -7.613  12.048  67.040  1.00  0.00    -0.111 C  
HETATM   18  C   UNL     1      -6.429  11.268  66.501  1.00  0.00    -0.111 C  
HETATM   19  O   UNL     1      -6.914   9.918  66.434  1.00  0.00    -0.089 OA 
HETATM   20  C   UNL     1      -7.969   9.816  67.298  1.00  0.00    -0.106 C  
HETATM   21  N   UNL     1      -8.258  11.046  67.831  1.00  0.00    -0.116 NA 
HETATM   22  O   UNL     1      -8.590   8.793  67.526  1.00  0.00    -0.125 OA 
ENDBRANCH  16  17
ENDBRANCH  13  16
ENDBRANCH   5   6
ENDBRANCH   4   5
ENDBRANCH   2   4
TORSDOF 5
ENDMDL
MODEL      162
REMARK 921   NORMALIZED FREE ENERGY PREDICTED BY IDOCK:   -4.20 KCAL/MOL
REMARK 922        TOTAL FREE ENERGY PREDICTED BY IDOCK:   -5.87 KCAL/MOL
REMARK 923 INTER-LIGAND FREE ENERGY PREDICTED BY IDOCK:   -5.68 KCAL/MOL
REMARK 924 INTRA-LIGAND FREE ENERGY PREDICTED BY IDOCK:   -0.19 KCAL/MOL
REMARK 927      BINDING AFFINITY PREDICTED BY RF-SCORE:    0.00 PKD
ROOT
HETATM    1  C   UNL     1      -6.728  14.411  69.131  1.00  0.00    -0.117 C  
HETATM    2  N   UNL     1      -7.330  15.696  69.508  1.00  0.00    -0.213 NA 
HETATM    3  C   UNL     1      -6.318  16.751  69.430  1.00  0.00    -0.222 C  
ENDROOT
BRANCH   2   4
HETATM    4  C   UNL     1      -8.494  15.969  68.639  1.00  0.00    -0.208 C  
BRANCH   4   5
HETATM    5  C   UNL     1      -8.136  16.294  67.176  1.00  0.00    -0.219 C  
BRANCH   5   6
HETATM    6  C   UNL     1      -9.336  16.296  66.272  1.00  0.00    -0.360 A  
HETATM    7  C   UNL     1      -9.857  17.383  65.600  1.00  0.00     0.135 A  
HETATM    8  N   UNL     1     -10.939  16.968  64.874  1.00  0.00    -0.769 NA 
HETATM    9  C   UNL     1     -11.141  15.619  65.052  1.00  0.00    -0.389 A  
HETATM   10  H   UNL     1     -11.513  17.571  64.286  1.00  0.00     0.000 HD 
HETATM   11  C   UNL     1     -12.109  14.772  64.503  1.00  0.00    -0.460 A  
HETATM   12  C   UNL     1     -12.076  13.422  64.870  1.00  0.00    -0.430 A  
HETATM   13  C   UNL     1     -11.113  12.929  65.760  1.00  0.00    -0.312 A  
HETATM   14  C   UNL     1     -10.140  13.803  66.275  1.00  0.00    -0.304 A  
HETATM   15  C   UNL     1     -10.154  15.170  65.927  1.00  0.00    -0.349 A  
BRANCH  13  16
HETATM   16  C   UNL     1     -11.114  11.469  66.152  1.00  0.00    -0.302 C  
BRANCH  16  17
HETATM   17  C   UNL     1     -10.325  10.586  65.186  1.00  0.00    -0.240 C  
HETATM   18  C   UNL     1      -9.998  11.235  63.854  1.00  0.00    -0.321 C  
HETATM   19  O   UNL     1      -8.796  10.568  63.438  1.00  0.00    -0.178 OA 
HETATM   20  C   UNL     1      -8.207  10.044  64.555  1.00  0.00    -0.164 C  
HETATM   21  N   UNL     1      -9.015  10.241  65.646  1.00  0.00    -0.164 NA 
HETATM   22  O   UNL     1      -7.144   9.451  64.573  1.00  0.00    -0.094 OA 
ENDBRANCH  16  17
ENDBRANCH  13  16
ENDBRANCH   5   6
ENDBRANCH   4   5
ENDBRANCH   2   4
TORSDOF 5
ENDMDL
MODEL      163
REMARK 921   NORMALIZED FREE ENERGY PREDICTED BY IDOCK:   -4.17 KCAL/MOL
REMARK 922        TOTAL FREE ENERGY PREDICTED BY IDOCK:   -5.83 KCAL/MOL
REMARK 923 INTER-LIGAND FREE ENERGY PREDICTED BY IDOCK:   -6.16 KCAL/MOL
REMARK 924 INTRA-LIGAND FREE ENERGY PREDICTED BY IDOCK:    0.33 KCAL/MOL
REMARK 927      BINDING AFFINITY PREDICTED BY RF-SCORE:    0.00 PKD
ROOT
HETATM    1  C   UNL     1      -8.850   8.237  66.984  1.00  0.00    -0.135 C  
HETATM    2  N   UNL     1      -9.201   9.588  67.435  1.00  0.00    -0.133 NA 
HETATM    3  C   UNL     1      -8.057  10.186  68.125  1.00  0.00    -0.105 C  
ENDROOT
BRANCH   2   4
HETATM    4  C   UNL     1      -9.643  10.395  66.277  1.00  0.00    -0.182 C  
BRANCH   4   5
HETATM    5  C   UNL     1     -10.985  11.123  66.481  1.00  0.00    -0.270 C  
BRANCH   5   6
HETATM    6  C   UNL     1     -11.214  12.211  65.472  1.00  0.00    -0.381 A  
HETATM    7  C   UNL     1     -11.644  12.049  64.171  1.00  0.00    -0.379 A  
HETATM    8  N   UNL     1     -11.740  13.282  63.587  1.00  0.00    -0.663 NA 
HETATM    9  C   UNL     1     -11.383  14.261  64.484  1.00  0.00    -0.334 A  
HETATM   10  H   UNL     1     -12.034  13.451  62.626  1.00  0.00     0.000 HD 
HETATM   11  C   UNL     1     -11.342  15.651  64.334  1.00  0.00    -0.272 A  
HETATM   12  C   UNL     1     -10.929  16.412  65.433  1.00  0.00    -0.167 A  
HETATM   13  C   UNL     1     -10.562  15.811  66.644  1.00  0.00    -0.307 A  
HETATM   14  C   UNL     1     -10.637  14.413  66.769  1.00  0.00    -0.282 A  
HETATM   15  C   UNL     1     -11.044  13.620  65.674  1.00  0.00    -0.300 A  
BRANCH  13  16
HETATM   16  C   UNL     1     -10.102  16.659  67.808  1.00  0.00    -0.275 C  
BRANCH  16  17
HETATM   17  C   UNL     1      -9.103  17.743  67.404  1.00  0.00    -0.244 C  
HETATM   18  C   UNL     1      -7.817  17.755  68.210  1.00  0.00    -0.279 C  
HETATM   19  O   UNL     1      -6.856  18.322  67.305  1.00  0.00    -0.192 OA 
HETATM   20  C   UNL     1      -7.331  18.145  66.036  1.00  0.00    -0.255 C  
HETATM   21  N   UNL     1      -8.588  17.599  66.078  1.00  0.00    -0.529 NA 
HETATM   22  O   UNL     1      -6.743  18.467  65.018  1.00  0.00    -0.473 OA 
ENDBRANCH  16  17
ENDBRANCH  13  16
ENDBRANCH   5   6
ENDBRANCH   4   5
ENDBRANCH   2   4
TORSDOF 5
ENDMDL
MODEL      164
REMARK 921   NORMALIZED FREE ENERGY PREDICTED BY IDOCK:   -4.16 KCAL/MOL
REMARK 922        TOTAL FREE ENERGY PREDICTED BY IDOCK:   -5.82 KCAL/MOL
REMARK 923 INTER-LIGAND FREE ENERGY PREDICTED BY IDOCK:   -5.36 KCAL/MOL
REMARK 924 INTRA-LIGAND FREE ENERGY PREDICTED BY IDOCK:   -0.46 KCAL/MOL
REMARK 927      BINDING AFFINITY PREDICTED BY RF-SCORE:    0.00 PKD
ROOT
HETATM    1  C   UNL     1      -9.891   4.281  69.944  1.00  0.00    -0.197 C  
HETATM    2  N   UNL     1     -10.019   5.510  69.152  1.00  0.00    -0.173 NA 
HETATM    3  C   UNL     1     -11.274   6.182  69.491  1.00  0.00    -0.411 C  
ENDROOT
BRANCH   2   4
HETATM    4  C   UNL     1      -8.840   6.371  69.384  1.00  0.00    -0.132 C  
BRANCH   4   5
HETATM    5  C   UNL     1      -8.999   7.371  70.544  1.00  0.00    -0.156 C  
BRANCH   5   6
HETATM    6  C   UNL     1      -8.338   8.692  70.267  1.00  0.00    -0.129 A  
HETATM    7  C   UNL     1      -7.139   9.136  70.784  1.00  0.00    -0.102 A  
HETATM    8  N   UNL     1      -6.880  10.379  70.277  1.00  0.00    -0.224 NA 
HETATM    9  C   UNL     1      -7.891  10.766  69.429  1.00  0.00    -0.087 A  
HETATM   10  H   UNL     1      -6.057  10.939  70.497  1.00  0.00     0.000 HD 
HETATM   11  C   UNL     1      -8.043  11.939  68.682  1.00  0.00    -0.086 A  
HETATM   12  C   UNL     1      -9.193  12.064  67.894  1.00  0.00    -0.190 A  
HETATM   13  C   UNL     1     -10.165  11.057  67.853  1.00  0.00    -0.207 A  
HETATM   14  C   UNL     1      -9.970   9.880  68.596  1.00  0.00    -0.177 A  
HETATM   15  C   UNL     1      -8.822   9.730  69.404  1.00  0.00    -0.188 A  
BRANCH  13  16
HETATM   16  C   UNL     1     -11.406  11.229  67.006  1.00  0.00    -0.262 C  
BRANCH  16  17
HETATM   17  C   UNL     1     -11.178  12.109  65.778  1.00  0.00    -0.339 C  
HETATM   18  C   UNL     1     -10.506  11.412  64.611  1.00  0.00    -0.315 C  
HETATM   19  O   UNL     1     -10.977  12.138  63.464  1.00  0.00    -0.411 OA 
HETATM   20  C   UNL     1     -12.139  12.763  63.822  1.00  0.00    -0.517 C  
HETATM   21  N   UNL     1     -12.381  12.571  65.159  1.00  0.00    -0.573 NA 
HETATM   22  O   UNL     1     -12.832  13.430  63.076  1.00  0.00    -0.481 OA 
ENDBRANCH  16  17
ENDBRANCH  13  16
ENDBRANCH   5   6
ENDBRANCH   4   5
ENDBRANCH   2   4
TORSDOF 5
ENDMDL
MODEL      165
REMARK 921   NORMALIZED FREE ENERGY PREDICTED BY IDOCK:   -4.15 KCAL/MOL
REMARK 922        TOTAL FREE ENERGY PREDICTED BY IDOCK:   -5.80 KCAL/MOL
REMARK 923 INTER-LIGAND FREE ENERGY PREDICTED BY IDOCK:   -5.61 KCAL/MOL
REMARK 924 INTRA-LIGAND FREE ENERGY PREDICTED BY IDOCK:   -0.19 KCAL/MOL
REMARK 927      BINDING AFFINITY PREDICTED BY RF-SCORE:    0.00 PKD
ROOT
HETATM    1  C   UNL     1     -13.542  14.446  72.006  1.00  0.00    -0.424 C  
HETATM    2  N   UNL     1     -12.221  14.064  71.493  1.00  0.00    -0.273 NA 
HETATM    3  C   UNL     1     -12.381  13.260  70.281  1.00  0.00    -0.264 C  
ENDROOT
BRANCH   2   4
HETATM    4  C   UNL     1     -11.414  15.280  71.258  1.00  0.00    -0.380 C  
BRANCH   4   5
HETATM    5  C   UNL     1     -11.833  16.095  70.020  1.00  0.00    -0.129 C  
BRANCH   5   6
HETATM    6  C   UNL     1     -10.658  16.597  69.230  1.00  0.00    -0.343 A  
HETATM    7  C   UNL     1     -10.227  17.904  69.138  1.00  0.00    -0.185 A  
HETATM    8  N   UNL     1      -9.120  17.942  68.336  1.00  0.00    -0.284 NA 
HETATM    9  C   UNL     1      -8.809  16.677  67.896  1.00  0.00    -0.205 A  
HETATM   10  H   UNL     1      -8.601  18.786  68.097  1.00  0.00     0.000 HD 
HETATM   11  C   UNL     1      -7.764  16.238  67.076  1.00  0.00    -0.250 A  
HETATM   12  C   UNL     1      -7.694  14.871  66.787  1.00  0.00     0.249 A  
HETATM   13  C   UNL     1      -8.636  13.966  67.293  1.00  0.00    -0.221 A  
HETATM   14  C   UNL     1      -9.659  14.437  68.135  1.00  0.00    -0.218 A  
HETATM   15  C   UNL     1      -9.758  15.812  68.437  1.00  0.00    -0.203 A  
BRANCH  13  16
HETATM   16  C   UNL     1      -8.545  12.497  66.949  1.00  0.00    -0.158 C  
BRANCH  16  17
HETATM   17  C   UNL     1      -9.849  11.929  66.389  1.00  0.00    -0.213 C  
HETATM   18  C   UNL     1     -10.852  11.487  67.438  1.00  0.00    -0.246 C  
HETATM   19  O   UNL     1     -12.119  11.632  66.777  1.00  0.00    -0.472 OA 
HETATM   20  C   UNL     1     -11.951  12.523  65.754  1.00  0.00    -0.420 C  
HETATM   21  N   UNL     1     -10.629  12.874  65.652  1.00  0.00    -0.273 NA 
HETATM   22  O   UNL     1     -12.836  12.914  65.014  1.00  0.00    -0.699 OA 
ENDBRANCH  16  17
ENDBRANCH  13  16
ENDBRANCH   5   6
ENDBRANCH   4   5
ENDBRANCH   2   4
TORSDOF 5
ENDMDL
MODEL      166
REMARK 921   NORMALIZED FREE ENERGY PREDICTED BY IDOCK:   -4.14 KCAL/MOL
REMARK 922        TOTAL FREE ENERGY PREDICTED BY IDOCK:   -5.79 KCAL/MOL
REMARK 923 INTER-LIGAND FREE ENERGY PREDICTED BY IDOCK:   -5.26 KCAL/MOL
REMARK 924 INTRA-LIGAND FREE ENERGY PREDICTED BY IDOCK:   -0.52 KCAL/MOL
REMARK 927      BINDING AFFINITY PREDICTED BY RF-SCORE:    0.00 PKD
ROOT
HETATM    1  C   UNL     1      -7.271  15.259  69.046  1.00  0.00    -0.151 C  
HETATM    2  N   UNL     1      -7.766  14.544  67.864  1.00  0.00    -0.125 NA 
HETATM    3  C   UNL     1      -7.226  13.183  67.854  1.00  0.00    -0.133 C  
ENDROOT
BRANCH   2   4
HETATM    4  C   UNL     1      -9.244  14.561  67.861  1.00  0.00    -0.196 C  
BRANCH   4   5
HETATM    5  C   UNL     1      -9.872  15.315  66.674  1.00  0.00    -0.263 C  
BRANCH   5   6
HETATM    6  C   UNL     1     -11.072  14.611  66.108  1.00  0.00    -0.334 A  
HETATM    7  C   UNL     1     -12.392  14.840  66.440  1.00  0.00     0.099 A  
HETATM    8  N   UNL     1     -13.178  14.006  65.694  1.00  0.00    -0.664 NA 
HETATM    9  C   UNL     1     -12.399  13.228  64.870  1.00  0.00    -0.425 A  
HETATM   10  H   UNL     1     -14.196  13.966  65.743  1.00  0.00     0.000 HD 
HETATM   11  C   UNL     1     -12.767  12.255  63.935  1.00  0.00    -0.490 A  
HETATM   12  C   UNL     1     -11.744  11.611  63.230  1.00  0.00    -0.233 A  
HETATM   13  C   UNL     1     -10.396  11.921  63.450  1.00  0.00    -0.481 A  
HETATM   14  C   UNL     1     -10.061  12.921  64.379  1.00  0.00    -0.265 A  
HETATM   15  C   UNL     1     -11.073  13.582  65.109  1.00  0.00    -0.326 A  
BRANCH  13  16
HETATM   16  C   UNL     1      -9.312  11.195  62.685  1.00  0.00    -0.336 C  
BRANCH  16  17
HETATM   17  C   UNL     1      -9.177   9.726  63.083  1.00  0.00    -0.186 C  
HETATM   18  C   UNL     1      -7.955   9.024  62.522  1.00  0.00    -0.134 C  
HETATM   19  O   UNL     1      -7.689   7.987  63.480  1.00  0.00    -0.126 OA 
HETATM   20  C   UNL     1      -8.273   8.357  64.660  1.00  0.00    -0.154 C  
HETATM   21  N   UNL     1      -8.989   9.514  64.485  1.00  0.00    -0.222 NA 
HETATM   22  O   UNL     1      -8.205   7.729  65.701  1.00  0.00    -0.120 OA 
ENDBRANCH  16  17
ENDBRANCH  13  16
ENDBRANCH   5   6
ENDBRANCH   4   5
ENDBRANCH   2   4
TORSDOF 5
ENDMDL
MODEL      167
REMARK 921   NORMALIZED FREE ENERGY PREDICTED BY IDOCK:   -4.12 KCAL/MOL
REMARK 922        TOTAL FREE ENERGY PREDICTED BY IDOCK:   -5.76 KCAL/MOL
REMARK 923 INTER-LIGAND FREE ENERGY PREDICTED BY IDOCK:   -5.54 KCAL/MOL
REMARK 924 INTRA-LIGAND FREE ENERGY PREDICTED BY IDOCK:   -0.23 KCAL/MOL
REMARK 927      BINDING AFFINITY PREDICTED BY RF-SCORE:    0.00 PKD
ROOT
HETATM    1  C   UNL     1     -11.865   8.148  71.277  1.00  0.00    -0.287 C  
HETATM    2  N   UNL     1     -10.562   8.803  71.441  1.00  0.00    -0.253 NA 
HETATM    3  C   UNL     1      -9.523   7.988  70.811  1.00  0.00    -0.161 C  
ENDROOT
BRANCH   2   4
HETATM    4  C   UNL     1     -10.623  10.169  70.878  1.00  0.00     0.120 C  
BRANCH   4   5
HETATM    5  C   UNL     1     -12.047  10.740  70.739  1.00  0.00    -0.473 C  
BRANCH   5   6
HETATM    6  C   UNL     1     -12.084  12.026  69.964  1.00  0.00    -0.355 A  
HETATM    7  C   UNL     1     -12.403  13.274  70.457  1.00  0.00    -0.316 A  
HETATM    8  N   UNL     1     -12.306  14.182  69.439  1.00  0.00    -0.491 NA 
HETATM    9  C   UNL     1     -11.925  13.553  68.277  1.00  0.00    -0.342 A  
HETATM   10  H   UNL     1     -12.491  15.180  69.528  1.00  0.00     0.000 HD 
HETATM   11  C   UNL     1     -11.691  14.078  67.002  1.00  0.00    -0.425 A  
HETATM   12  C   UNL     1     -11.310  13.188  65.991  1.00  0.00    -0.337 A  
HETATM   13  C   UNL     1     -11.170  11.817  66.238  1.00  0.00    -0.370 A  
HETATM   14  C   UNL     1     -11.389  11.325  67.537  1.00  0.00    -0.360 A  
HETATM   15  C   UNL     1     -11.781  12.199  68.573  1.00  0.00    -0.382 A  
BRANCH  13  16
HETATM   16  C   UNL     1     -10.775  10.877  65.122  1.00  0.00    -0.209 C  
BRANCH  16  17
HETATM   17  C   UNL     1      -9.336  10.377  65.238  1.00  0.00    -0.214 C  
HETATM   18  C   UNL     1      -8.476  11.137  66.230  1.00  0.00    -0.168 C  
HETATM   19  O   UNL     1      -7.498  10.170  66.643  1.00  0.00    -0.101 OA 
HETATM   20  C   UNL     1      -8.016   8.929  66.394  1.00  0.00    -0.103 C  
HETATM   21  N   UNL     1      -9.219   9.045  65.746  1.00  0.00    -0.222 NA 
HETATM   22  O   UNL     1      -7.468   7.876  66.666  1.00  0.00    -0.086 OA 
ENDBRANCH  16  17
ENDBRANCH  13  16
ENDBRANCH   5   6
ENDBRANCH   4   5
ENDBRANCH   2   4
TORSDOF 5
ENDMDL
MODEL      168
REMARK 921   NORMALIZED FREE ENERGY PREDICTED BY IDOCK:   -4.11 KCAL/MOL
REMARK 922        TOTAL FREE ENERGY PREDICTED BY IDOCK:   -5.76 KCAL/MOL
REMARK 923 INTER-LIGAND FREE ENERGY PREDICTED BY IDOCK:   -5.41 KCAL/MOL
REMARK 924 INTRA-LIGAND FREE ENERGY PREDICTED BY IDOCK:   -0.34 KCAL/MOL
REMARK 927      BINDING AFFINITY PREDICTED BY RF-SCORE:    0.00 PKD
ROOT
HETATM    1  C   UNL     1     -11.335  12.940  63.668  1.00  0.00    -0.398 C  
HETATM    2  N   UNL     1     -10.445  12.516  64.755  1.00  0.00    -0.299 NA 
HETATM    3  C   UNL     1     -10.312  13.601  65.729  1.00  0.00    -0.298 C  
ENDROOT
BRANCH   2   4
HETATM    4  C   UNL     1     -10.969  11.275  65.365  1.00  0.00    -0.132 C  
BRANCH   4   5
HETATM    5  C   UNL     1     -10.027  10.062  65.252  1.00  0.00    -0.368 C  
BRANCH   5   6
HETATM    6  C   UNL     1      -9.050   9.977  66.391  1.00  0.00    -0.176 A  
HETATM    7  C   UNL     1      -7.679  10.101  66.308  1.00  0.00    -0.110 A  
HETATM    8  N   UNL     1      -7.155   9.977  67.565  1.00  0.00    -0.087 NA 
HETATM    9  C   UNL     1      -8.160   9.774  68.481  1.00  0.00    -0.104 A  
HETATM   10  H   UNL     1      -6.162  10.027  67.790  1.00  0.00     0.000 HD 
HETATM   11  C   UNL     1      -8.096   9.609  69.869  1.00  0.00    -0.180 A  
HETATM   12  C   UNL     1      -9.300   9.414  70.556  1.00  0.00    -0.319 A  
HETATM   13  C   UNL     1     -10.529   9.380  69.886  1.00  0.00    -0.257 A  
HETATM   14  C   UNL     1     -10.560   9.574  68.494  1.00  0.00    -0.247 A  
HETATM   15  C   UNL     1      -9.361   9.766  67.774  1.00  0.00    -0.148 A  
BRANCH  13  16
HETATM   16  C   UNL     1     -11.810   9.149  70.654  1.00  0.00    -0.222 C  
BRANCH  16  17
HETATM   17  C   UNL     1     -12.689  10.396  70.745  1.00  0.00    -0.371 C  
HETATM   18  C   UNL     1     -13.283  10.658  72.116  1.00  0.00    -0.273 C  
HETATM   19  O   UNL     1     -13.466  12.082  72.140  1.00  0.00    -0.476 OA 
HETATM   20  C   UNL     1     -12.622  12.622  71.211  1.00  0.00    -0.240 C  
HETATM   21  N   UNL     1     -11.989  11.622  70.517  1.00  0.00    -0.359 NA 
HETATM   22  O   UNL     1     -12.484  13.813  70.999  1.00  0.00    -0.349 OA 
ENDBRANCH  16  17
ENDBRANCH  13  16
ENDBRANCH   5   6
ENDBRANCH   4   5
ENDBRANCH   2   4
TORSDOF 5
ENDMDL
MODEL      169
REMARK 921   NORMALIZED FREE ENERGY PREDICTED BY IDOCK:   -4.09 KCAL/MOL
REMARK 922        TOTAL FREE ENERGY PREDICTED BY IDOCK:   -5.73 KCAL/MOL
REMARK 923 INTER-LIGAND FREE ENERGY PREDICTED BY IDOCK:   -5.31 KCAL/MOL
REMARK 924 INTRA-LIGAND FREE ENERGY PREDICTED BY IDOCK:   -0.42 KCAL/MOL
REMARK 927      BINDING AFFINITY PREDICTED BY RF-SCORE:    0.00 PKD
ROOT
HETATM    1  C   UNL     1     -11.934  14.347  66.864  1.00  0.00    -0.399 C  
HETATM    2  N   UNL     1     -11.787  13.320  65.826  1.00  0.00    -0.366 NA 
HETATM    3  C   UNL     1     -10.645  13.648  64.972  1.00  0.00    -0.383 C  
ENDROOT
BRANCH   2   4
HETATM    4  C   UNL     1     -11.650  11.992  66.462  1.00  0.00    -0.314 C  
BRANCH   4   5
HETATM    5  C   UNL     1     -10.297  11.301  66.210  1.00  0.00    -0.294 C  
BRANCH   5   6
HETATM    6  C   UNL     1      -9.458  11.199  67.452  1.00  0.00    -0.176 A  
HETATM    7  C   UNL     1      -8.763  12.223  68.061  1.00  0.00    -0.181 A  
HETATM    8  N   UNL     1      -8.138  11.726  69.171  1.00  0.00    -0.353 NA 
HETATM    9  C   UNL     1      -8.412  10.385  69.309  1.00  0.00    -0.154 A  
HETATM   10  H   UNL     1      -7.554  12.270  69.805  1.00  0.00     0.000 HD 
HETATM   11  C   UNL     1      -8.004   9.477  70.292  1.00  0.00    -0.190 A  
HETATM   12  C   UNL     1      -8.440   8.153  70.175  1.00  0.00    -0.127 A  
HETATM   13  C   UNL     1      -9.252   7.740  69.112  1.00  0.00    -0.144 A  
HETATM   14  C   UNL     1      -9.664   8.683  68.154  1.00  0.00    -0.178 A  
HETATM   15  C   UNL     1      -9.234  10.025  68.244  1.00  0.00    -0.129 A  
BRANCH  13  16
HETATM   16  C   UNL     1      -9.692   6.298  69.003  1.00  0.00    -0.147 C  
BRANCH  16  17
HETATM   17  C   UNL     1     -10.904   5.972  69.874  1.00  0.00    -0.363 C  
HETATM   18  C   UNL     1     -10.571   5.506  71.279  1.00  0.00    -0.236 C  
HETATM   19  O   UNL     1     -11.724   5.890  72.046  1.00  0.00    -0.279 OA 
HETATM   20  C   UNL     1     -12.357   6.891  71.364  1.00  0.00    -0.376 C  
HETATM   21  N   UNL     1     -11.742   7.096  70.155  1.00  0.00    -0.176 NA 
HETATM   22  O   UNL     1     -13.348   7.484  71.752  1.00  0.00    -0.344 OA 
ENDBRANCH  16  17
ENDBRANCH  13  16
ENDBRANCH   5   6
ENDBRANCH   4   5
ENDBRANCH   2   4
TORSDOF 5
ENDMDL
MODEL      170
REMARK 921   NORMALIZED FREE ENERGY PREDICTED BY IDOCK:   -4.05 KCAL/MOL
REMARK 922        TOTAL FREE ENERGY PREDICTED BY IDOCK:   -5.67 KCAL/MOL
REMARK 923 INTER-LIGAND FREE ENERGY PREDICTED BY IDOCK:   -5.41 KCAL/MOL
REMARK 924 INTRA-LIGAND FREE ENERGY PREDICTED BY IDOCK:   -0.26 KCAL/MOL
REMARK 927      BINDING AFFINITY PREDICTED BY RF-SCORE:    0.00 PKD
ROOT
HETATM    1  C   UNL     1     -13.707   9.583  72.093  1.00  0.00    -0.372 C  
HETATM    2  N   UNL     1     -13.120   8.242  72.000  1.00  0.00    -0.336 NA 
HETATM    3  C   UNL     1     -14.088   7.325  71.395  1.00  0.00    -0.319 C  
ENDROOT
BRANCH   2   4
HETATM    4  C   UNL     1     -11.856   8.309  71.234  1.00  0.00    -0.288 C  
BRANCH   4   5
HETATM    5  C   UNL     1     -11.416   9.735  70.852  1.00  0.00    -0.447 C  
BRANCH   5   6
HETATM    6  C   UNL     1      -9.992   9.796  70.380  1.00  0.00    -0.294 A  
HETATM    7  C   UNL     1      -8.919   9.113  70.915  1.00  0.00    -0.237 A  
HETATM    8  N   UNL     1      -7.800   9.428  70.195  1.00  0.00    -0.123 NA 
HETATM    9  C   UNL     1      -8.116  10.308  69.187  1.00  0.00    -0.138 A  
HETATM   10  H   UNL     1      -6.866   9.063  70.378  1.00  0.00     0.000 HD 
HETATM   11  C   UNL     1      -7.304  10.887  68.206  1.00  0.00    -0.087 A  
HETATM   12  C   UNL     1      -7.907  11.763  67.296  1.00  0.00    -0.161 A  
HETATM   13  C   UNL     1      -9.273  12.061  67.362  1.00  0.00    -0.180 A  
HETATM   14  C   UNL     1     -10.066  11.444  68.345  1.00  0.00    -0.207 A  
HETATM   15  C   UNL     1      -9.484  10.561  69.279  1.00  0.00    -0.191 A  
BRANCH  13  16
HETATM   16  C   UNL     1      -9.892  13.027  66.377  1.00  0.00    -0.270 C  
BRANCH  16  17
HETATM   17  C   UNL     1     -10.355  14.331  67.024  1.00  0.00    -0.267 C  
HETATM   18  C   UNL     1     -11.838  14.394  67.340  1.00  0.00    -0.400 C  
HETATM   19  O   UNL     1     -11.910  15.305  68.448  1.00  0.00    -0.339 OA 
HETATM   20  C   UNL     1     -10.679  15.329  69.043  1.00  0.00    -0.244 C  
HETATM   21  N   UNL     1      -9.794  14.574  68.317  1.00  0.00    -0.222 NA 
HETATM   22  O   UNL     1     -10.399  15.964  70.043  1.00  0.00    -0.289 OA 
ENDBRANCH  16  17
ENDBRANCH  13  16
ENDBRANCH   5   6
ENDBRANCH   4   5
ENDBRANCH   2   4
TORSDOF 5
ENDMDL
MODEL      171
REMARK 921   NORMALIZED FREE ENERGY PREDICTED BY IDOCK:   -4.03 KCAL/MOL
REMARK 922        TOTAL FREE ENERGY PREDICTED BY IDOCK:   -5.65 KCAL/MOL
REMARK 923 INTER-LIGAND FREE ENERGY PREDICTED BY IDOCK:   -5.25 KCAL/MOL
REMARK 924 INTRA-LIGAND FREE ENERGY PREDICTED BY IDOCK:   -0.40 KCAL/MOL
REMARK 927      BINDING AFFINITY PREDICTED BY RF-SCORE:    0.00 PKD
ROOT
HETATM    1  C   UNL     1     -10.742  17.155  67.379  1.00  0.00    -0.242 C  
HETATM    2  N   UNL     1      -9.918  18.369  67.353  1.00  0.00    -0.320 NA 
HETATM    3  C   UNL     1     -10.785  19.546  67.283  1.00  0.00    -0.484 C  
ENDROOT
BRANCH   2   4
HETATM    4  C   UNL     1      -9.035  18.391  68.538  1.00  0.00    -0.315 C  
BRANCH   4   5
HETATM    5  C   UNL     1      -7.532  18.294  68.216  1.00  0.00    -0.288 C  
BRANCH   5   6
HETATM    6  C   UNL     1      -6.868  17.128  68.893  1.00  0.00    -0.221 A  
HETATM    7  C   UNL     1      -5.905  17.189  69.878  1.00  0.00    -0.236 A  
HETATM    8  N   UNL     1      -5.570  15.913  70.239  1.00  0.00    -0.166 NA 
HETATM    9  C   UNL     1      -6.300  15.006  69.508  1.00  0.00    -0.131 A  
HETATM   10  H   UNL     1      -4.879  15.669  70.947  1.00  0.00     0.000 HD 
HETATM   11  C   UNL     1      -6.301  13.607  69.546  1.00  0.00    -0.114 A  
HETATM   12  C   UNL     1      -7.160  12.933  68.671  1.00  0.00    -0.103 A  
HETATM   13  C   UNL     1      -7.989  13.625  67.780  1.00  0.00    -0.172 A  
HETATM   14  C   UNL     1      -7.982  15.032  67.784  1.00  0.00    -0.155 A  
HETATM   15  C   UNL     1      -7.121  15.737  68.652  1.00  0.00    -0.129 A  
BRANCH  13  16
HETATM   16  C   UNL     1      -8.893  12.869  66.834  1.00  0.00    -0.188 C  
BRANCH  16  17
HETATM   17  C   UNL     1     -10.324  12.731  67.351  1.00  0.00    -0.222 C  
HETATM   18  C   UNL     1     -11.133  11.625  66.698  1.00  0.00    -0.307 C  
HETATM   19  O   UNL     1     -12.088  11.263  67.708  1.00  0.00    -0.631 OA 
HETATM   20  C   UNL     1     -11.584  11.661  68.915  1.00  0.00    -0.314 C  
HETATM   21  N   UNL     1     -10.415  12.354  68.727  1.00  0.00    -0.195 NA 
HETATM   22  O   UNL     1     -12.116  11.469  69.993  1.00  0.00    -0.314 OA 
ENDBRANCH  16  17
ENDBRANCH  13  16
ENDBRANCH   5   6
ENDBRANCH   4   5
ENDBRANCH   2   4
TORSDOF 5
ENDMDL
MODEL      172
REMARK 921   NORMALIZED FREE ENERGY PREDICTED BY IDOCK:   -4.03 KCAL/MOL
REMARK 922        TOTAL FREE ENERGY PREDICTED BY IDOCK:   -5.65 KCAL/MOL
REMARK 923 INTER-LIGAND FREE ENERGY PREDICTED BY IDOCK:   -5.20 KCAL/MOL
REMARK 924 INTRA-LIGAND FREE ENERGY PREDICTED BY IDOCK:   -0.44 KCAL/MOL
REMARK 927      BINDING AFFINITY PREDICTED BY RF-SCORE:    0.00 PKD
ROOT
HETATM    1  C   UNL     1      -6.691  17.518  66.753  1.00  0.00    -0.202 C  
HETATM    2  N   UNL     1      -7.634  18.626  66.942  1.00  0.00    -0.216 NA 
HETATM    3  C   UNL     1      -7.416  19.636  65.906  1.00  0.00    -0.316 C  
ENDROOT
BRANCH   2   4
HETATM    4  C   UNL     1      -9.017  18.104  66.935  1.00  0.00    -0.271 C  
BRANCH   4   5
HETATM    5  C   UNL     1      -9.157  16.675  66.377  1.00  0.00    -0.325 C  
BRANCH   5   6
HETATM    6  C   UNL     1     -10.209  15.874  67.090  1.00  0.00    -0.278 A  
HETATM    7  C   UNL     1     -11.057  16.326  68.080  1.00  0.00    -0.299 A  
HETATM    8  N   UNL     1     -11.873  15.296  68.458  1.00  0.00    -0.501 NA 
HETATM    9  C   UNL     1     -11.579  14.167  67.731  1.00  0.00    -0.347 A  
HETATM   10  H   UNL     1     -12.594  15.357  69.176  1.00  0.00     0.000 HD 
HETATM   11  C   UNL     1     -12.159  12.894  67.768  1.00  0.00    -0.218 A  
HETATM   12  C   UNL     1     -11.648  11.921  66.902  1.00  0.00    -0.358 A  
HETATM   13  C   UNL     1     -10.589  12.201  66.029  1.00  0.00    -0.292 A  
HETATM   14  C   UNL     1     -10.045  13.497  66.000  1.00  0.00    -0.316 A  
HETATM   15  C   UNL     1     -10.537  14.496  66.867  1.00  0.00    -0.279 A  
BRANCH  13  16
HETATM   16  C   UNL     1     -10.045  11.123  65.119  1.00  0.00    -0.335 C  
BRANCH  16  17
HETATM   17  C   UNL     1      -8.566  10.825  65.358  1.00  0.00    -0.157 C  
HETATM   18  C   UNL     1      -8.243  10.269  66.733  1.00  0.00    -0.124 C  
HETATM   19  O   UNL     1      -7.053   9.495  66.514  1.00  0.00    -0.084 OA 
HETATM   20  C   UNL     1      -7.005   9.179  65.185  1.00  0.00    -0.087 C  
HETATM   21  N   UNL     1      -8.034   9.795  64.520  1.00  0.00    -0.136 NA 
HETATM   22  O   UNL     1      -6.150   8.488  64.661  1.00  0.00    -0.063 OA 
ENDBRANCH  16  17
ENDBRANCH  13  16
ENDBRANCH   5   6
ENDBRANCH   4   5
ENDBRANCH   2   4
TORSDOF 5
ENDMDL
MODEL      173
REMARK 921   NORMALIZED FREE ENERGY PREDICTED BY IDOCK:   -4.01 KCAL/MOL
REMARK 922        TOTAL FREE ENERGY PREDICTED BY IDOCK:   -5.62 KCAL/MOL
REMARK 923 INTER-LIGAND FREE ENERGY PREDICTED BY IDOCK:   -5.42 KCAL/MOL
REMARK 924 INTRA-LIGAND FREE ENERGY PREDICTED BY IDOCK:   -0.20 KCAL/MOL
REMARK 927      BINDING AFFINITY PREDICTED BY RF-SCORE:    0.00 PKD
ROOT
HETATM    1  C   UNL     1      -7.551  18.083  68.565  1.00  0.00    -0.291 C  
HETATM    2  N   UNL     1      -7.848  19.273  67.760  1.00  0.00    -0.269 NA 
HETATM    3  C   UNL     1      -6.841  19.415  66.707  1.00  0.00    -0.197 C  
ENDROOT
BRANCH   2   4
HETATM    4  C   UNL     1      -9.219  19.172  67.215  1.00  0.00    -0.290 C  
BRANCH   4   5
HETATM    5  C   UNL     1      -9.984  17.907  67.646  1.00  0.00    -0.324 C  
BRANCH   5   6
HETATM    6  C   UNL     1     -10.368  17.037  66.482  1.00  0.00    -0.298 A  
HETATM    7  C   UNL     1     -10.880  17.459  65.273  1.00  0.00     0.056 A  
HETATM    8  N   UNL     1     -11.083  16.364  64.480  1.00  0.00    -1.003 NA 
HETATM    9  C   UNL     1     -10.708  15.220  65.145  1.00  0.00    -0.436 A  
HETATM   10  H   UNL     1     -11.457  16.392  63.532  1.00  0.00     0.000 HD 
HETATM   11  C   UNL     1     -10.726  13.886  64.725  1.00  0.00    -0.437 A  
HETATM   12  C   UNL     1     -10.282  12.914  65.629  1.00  0.00    -0.295 A  
HETATM   13  C   UNL     1      -9.839  13.256  66.912  1.00  0.00    -0.247 A  
HETATM   14  C   UNL     1      -9.811  14.609  67.294  1.00  0.00    -0.231 A  
HETATM   15  C   UNL     1     -10.259  15.609  66.405  1.00  0.00    -0.300 A  
BRANCH  13  16
HETATM   16  C   UNL     1      -9.383  12.181  67.873  1.00  0.00    -0.192 C  
BRANCH  16  17
HETATM   17  C   UNL     1      -7.902  12.289  68.236  1.00  0.00    -0.153 C  
HETATM   18  C   UNL     1      -6.952  12.240  67.055  1.00  0.00    -0.033 C  
HETATM   19  O   UNL     1      -5.807  12.979  67.509  1.00  0.00    -0.203 OA 
HETATM   20  C   UNL     1      -6.220  13.792  68.528  1.00  0.00    -0.092 C  
HETATM   21  N   UNL     1      -7.534  13.539  68.826  1.00  0.00    -0.099 NA 
HETATM   22  O   UNL     1      -5.513  14.592  69.114  1.00  0.00    -0.084 OA 
ENDBRANCH  16  17
ENDBRANCH  13  16
ENDBRANCH   5   6
ENDBRANCH   4   5
ENDBRANCH   2   4
TORSDOF 5
ENDMDL
MODEL      174
REMARK 921   NORMALIZED FREE ENERGY PREDICTED BY IDOCK:   -4.00 KCAL/MOL
REMARK 922        TOTAL FREE ENERGY PREDICTED BY IDOCK:   -5.60 KCAL/MOL
REMARK 923 INTER-LIGAND FREE ENERGY PREDICTED BY IDOCK:   -5.19 KCAL/MOL
REMARK 924 INTRA-LIGAND FREE ENERGY PREDICTED BY IDOCK:   -0.41 KCAL/MOL
REMARK 927      BINDING AFFINITY PREDICTED BY RF-SCORE:    0.00 PKD
ROOT
HETATM    1  C   UNL     1      -5.957   8.967  67.860  1.00  0.00    -0.050 C  
HETATM    2  N   UNL     1      -7.275   9.603  67.753  1.00  0.00    -0.085 NA 
HETATM    3  C   UNL     1      -7.841   9.782  69.091  1.00  0.00    -0.095 C  
ENDROOT
BRANCH   2   4
HETATM    4  C   UNL     1      -7.148  10.881  67.021  1.00  0.00    -0.109 C  
BRANCH   4   5
HETATM    5  C   UNL     1      -8.302  11.872  67.262  1.00  0.00    -0.169 C  
BRANCH   5   6
HETATM    6  C   UNL     1      -9.401  11.741  66.246  1.00  0.00    -0.235 A  
HETATM    7  C   UNL     1      -9.883  10.569  65.702  1.00  0.00    -0.252 A  
HETATM    8  N   UNL     1     -10.890  10.875  64.829  1.00  0.00    -0.182 NA 
HETATM    9  C   UNL     1     -11.085  12.236  64.788  1.00  0.00    -0.311 A  
HETATM   10  H   UNL     1     -11.419  10.194  64.286  1.00  0.00     0.000 HD 
HETATM   11  C   UNL     1     -12.004  12.994  64.056  1.00  0.00    -0.523 A  
HETATM   12  C   UNL     1     -11.973  14.385  64.213  1.00  0.00    -0.433 A  
HETATM   13  C   UNL     1     -11.053  15.004  65.067  1.00  0.00    -0.421 A  
HETATM   14  C   UNL     1     -10.158  14.211  65.808  1.00  0.00    -0.352 A  
HETATM   15  C   UNL     1     -10.164  12.807  65.664  1.00  0.00    -0.292 A  
BRANCH  13  16
HETATM   16  C   UNL     1     -11.030  16.510  65.202  1.00  0.00    -0.201 C  
BRANCH  16  17
HETATM   17  C   UNL     1     -10.131  16.998  66.337  1.00  0.00    -0.317 C  
HETATM   18  C   UNL     1      -9.506  18.362  66.113  1.00  0.00    -0.156 C  
HETATM   19  O   UNL     1      -9.301  18.864  67.443  1.00  0.00    -0.286 OA 
HETATM   20  C   UNL     1     -10.155  18.193  68.273  1.00  0.00    -0.386 C  
HETATM   21  N   UNL     1     -10.817  17.216  67.573  1.00  0.00    -0.265 NA 
HETATM   22  O   UNL     1     -10.279  18.402  69.466  1.00  0.00    -0.069 OA 
ENDBRANCH  16  17
ENDBRANCH  13  16
ENDBRANCH   5   6
ENDBRANCH   4   5
ENDBRANCH   2   4
TORSDOF 5
ENDMDL
MODEL      175
REMARK 921   NORMALIZED FREE ENERGY PREDICTED BY IDOCK:   -3.89 KCAL/MOL
REMARK 922        TOTAL FREE ENERGY PREDICTED BY IDOCK:   -5.46 KCAL/MOL
REMARK 923 INTER-LIGAND FREE ENERGY PREDICTED BY IDOCK:   -5.41 KCAL/MOL
REMARK 924 INTRA-LIGAND FREE ENERGY PREDICTED BY IDOCK:   -0.05 KCAL/MOL
REMARK 927      BINDING AFFINITY PREDICTED BY RF-SCORE:    0.00 PKD
ROOT
HETATM    1  C   UNL     1     -13.118   8.884  72.311  1.00  0.00    -0.436 C  
HETATM    2  N   UNL     1     -12.002   8.014  71.923  1.00  0.00    -0.297 NA 
HETATM    3  C   UNL     1     -12.518   6.853  71.196  1.00  0.00    -0.349 C  
ENDROOT
BRANCH   2   4
HETATM    4  C   UNL     1     -11.027   8.788  71.125  1.00  0.00    -0.268 C  
BRANCH   4   5
HETATM    5  C   UNL     1     -11.431  10.252  70.870  1.00  0.00    -0.425 C  
BRANCH   5   6
HETATM    6  C   UNL     1     -11.379  10.623  69.415  1.00  0.00    -0.348 A  
HETATM    7  C   UNL     1     -12.035  11.676  68.811  1.00  0.00    -0.264 A  
HETATM    8  N   UNL     1     -11.717  11.681  67.481  1.00  0.00    -0.590 NA 
HETATM    9  C   UNL     1     -10.857  10.647  67.194  1.00  0.00    -0.270 A  
HETATM   10  H   UNL     1     -12.068  12.353  66.800  1.00  0.00     0.000 HD 
HETATM   11  C   UNL     1     -10.265  10.275  65.983  1.00  0.00    -0.298 A  
HETATM   12  C   UNL     1      -9.420   9.159  65.986  1.00  0.00    -0.321 A  
HETATM   13  C   UNL     1      -9.176   8.430  67.156  1.00  0.00    -0.174 A  
HETATM   14  C   UNL     1      -9.768   8.844  68.363  1.00  0.00    -0.175 A  
HETATM   15  C   UNL     1     -10.629   9.962  68.386  1.00  0.00    -0.258 A  
BRANCH  13  16
HETATM   16  C   UNL     1      -8.273   7.218  67.126  1.00  0.00    -0.118 C  
BRANCH  16  17
HETATM   17  C   UNL     1      -9.039   5.902  66.985  1.00  0.00    -0.116 C  
HETATM   18  C   UNL     1      -8.434   4.915  66.005  1.00  0.00    -0.117 C  
HETATM   19  O   UNL     1      -8.865   3.638  66.501  1.00  0.00    -0.116 OA 
HETATM   20  C   UNL     1      -9.173   3.792  67.824  1.00  0.00    -0.173 C  
HETATM   21  N   UNL     1      -9.071   5.114  68.177  1.00  0.00    -0.110 NA 
HETATM   22  O   UNL     1      -9.529   2.897  68.568  1.00  0.00    -0.189 OA 
ENDBRANCH  16  17
ENDBRANCH  13  16
ENDBRANCH   5   6
ENDBRANCH   4   5
ENDBRANCH   2   4
TORSDOF 5
ENDMDL
MODEL      176
REMARK 921   NORMALIZED FREE ENERGY PREDICTED BY IDOCK:   -3.89 KCAL/MOL
REMARK 922        TOTAL FREE ENERGY PREDICTED BY IDOCK:   -5.46 KCAL/MOL
REMARK 923 INTER-LIGAND FREE ENERGY PREDICTED BY IDOCK:   -5.25 KCAL/MOL
REMARK 924 INTRA-LIGAND FREE ENERGY PREDICTED BY IDOCK:   -0.21 KCAL/MOL
REMARK 927      BINDING AFFINITY PREDICTED BY RF-SCORE:    0.00 PKD
ROOT
HETATM    1  C   UNL     1      -6.620  16.987  66.680  1.00  0.00    -0.237 C  
HETATM    2  N   UNL     1      -7.336  18.268  66.666  1.00  0.00    -0.212 NA 
HETATM    3  C   UNL     1      -6.892  19.063  65.520  1.00  0.00    -0.239 C  
ENDROOT
BRANCH   2   4
HETATM    4  C   UNL     1      -8.793  18.018  66.645  1.00  0.00    -0.266 C  
BRANCH   4   5
HETATM    5  C   UNL     1      -9.185  16.542  66.442  1.00  0.00    -0.327 C  
BRANCH   5   6
HETATM    6  C   UNL     1     -10.161  16.053  67.473  1.00  0.00    -0.275 A  
HETATM    7  C   UNL     1     -10.827  16.823  68.405  1.00  0.00    -0.355 A  
HETATM    8  N   UNL     1     -11.633  16.005  69.149  1.00  0.00    -0.357 NA 
HETATM    9  C   UNL     1     -11.513  14.704  68.721  1.00  0.00    -0.296 A  
HETATM   10  H   UNL     1     -12.235  16.316  69.910  1.00  0.00     0.000 HD 
HETATM   11  C   UNL     1     -12.149  13.543  69.174  1.00  0.00    -0.331 A  
HETATM   12  C   UNL     1     -11.826  12.336  68.543  1.00  0.00    -0.359 A  
HETATM   13  C   UNL     1     -10.895  12.282  67.499  1.00  0.00    -0.271 A  
HETATM   14  C   UNL     1     -10.291  13.471  67.052  1.00  0.00    -0.252 A  
HETATM   15  C   UNL     1     -10.594  14.701  67.673  1.00  0.00    -0.256 A  
BRANCH  13  16
HETATM   16  C   UNL     1     -10.552  10.960  66.849  1.00  0.00    -0.312 C  
BRANCH  16  17
HETATM   17  C   UNL     1      -9.424  10.216  67.563  1.00  0.00    -0.152 C  
HETATM   18  C   UNL     1      -8.116  10.979  67.656  1.00  0.00    -0.116 C  
HETATM   19  O   UNL     1      -7.496  10.445  68.836  1.00  0.00    -0.084 OA 
HETATM   20  C   UNL     1      -8.482   9.897  69.608  1.00  0.00    -0.187 C  
HETATM   21  N   UNL     1      -9.681   9.951  68.944  1.00  0.00    -0.168 NA 
HETATM   22  O   UNL     1      -8.313   9.395  70.705  1.00  0.00    -0.194 OA 
ENDBRANCH  16  17
ENDBRANCH  13  16
ENDBRANCH   5   6
ENDBRANCH   4   5
ENDBRANCH   2   4
TORSDOF 5
ENDMDL
MODEL      177
REMARK 921   NORMALIZED FREE ENERGY PREDICTED BY IDOCK:   -3.88 KCAL/MOL
REMARK 922        TOTAL FREE ENERGY PREDICTED BY IDOCK:   -5.46 KCAL/MOL
REMARK 923 INTER-LIGAND FREE ENERGY PREDICTED BY IDOCK:   -5.11 KCAL/MOL
REMARK 924 INTRA-LIGAND FREE ENERGY PREDICTED BY IDOCK:   -0.34 KCAL/MOL
REMARK 927      BINDING AFFINITY PREDICTED BY RF-SCORE:    0.00 PKD
ROOT
HETATM    1  C   UNL     1     -12.262  13.865  66.433  1.00  0.00    -0.449 C  
HETATM    2  N   UNL     1     -11.044  14.636  66.154  1.00  0.00    -0.329 NA 
HETATM    3  C   UNL     1     -10.721  14.541  64.730  1.00  0.00    -0.393 C  
ENDROOT
BRANCH   2   4
HETATM    4  C   UNL     1     -11.233  16.034  66.595  1.00  0.00     0.127 C  
BRANCH   4   5
HETATM    5  C   UNL     1     -10.656  17.090  65.633  1.00  0.00    -0.206 C  
BRANCH   5   6
HETATM    6  C   UNL     1     -10.067  18.270  66.353  1.00  0.00    -0.406 A  
HETATM    7  C   UNL     1     -10.724  19.430  66.705  1.00  0.00    -0.448 A  
HETATM    8  N   UNL     1      -9.843  20.249  67.357  1.00  0.00    -0.429 NA 
HETATM    9  C   UNL     1      -8.610  19.646  67.444  1.00  0.00    -0.306 A  
HETATM   10  H   UNL     1     -10.068  21.172  67.724  1.00  0.00     0.000 HD 
HETATM   11  C   UNL     1      -7.424  20.098  68.030  1.00  0.00    -0.297 A  
HETATM   12  C   UNL     1      -6.305  19.260  67.965  1.00  0.00    -0.231 A  
HETATM   13  C   UNL     1      -6.361  18.013  67.332  1.00  0.00    -0.174 A  
HETATM   14  C   UNL     1      -7.575  17.577  66.774  1.00  0.00    -0.261 A  
HETATM   15  C   UNL     1      -8.718  18.404  66.820  1.00  0.00    -0.284 A  
BRANCH  13  16
HETATM   16  C   UNL     1      -5.130  17.137  67.261  1.00  0.00    -0.158 C  
BRANCH  16  17
HETATM   17  C   UNL     1      -5.141  16.002  68.284  1.00  0.00    -0.104 C  
HETATM   18  C   UNL     1      -6.044  16.232  69.481  1.00  0.00    -0.179 C  
HETATM   19  O   UNL     1      -6.397  14.904  69.900  1.00  0.00    -0.135 OA 
HETATM   20  C   UNL     1      -6.217  14.073  68.830  1.00  0.00    -0.087 C  
HETATM   21  N   UNL     1      -5.666  14.769  67.784  1.00  0.00    -0.290 NA 
HETATM   22  O   UNL     1      -6.467  12.881  68.820  1.00  0.00    -0.074 OA 
ENDBRANCH  16  17
ENDBRANCH  13  16
ENDBRANCH   5   6
ENDBRANCH   4   5
ENDBRANCH   2   4
TORSDOF 5
ENDMDL
MODEL      178
REMARK 921   NORMALIZED FREE ENERGY PREDICTED BY IDOCK:   -3.88 KCAL/MOL
REMARK 922        TOTAL FREE ENERGY PREDICTED BY IDOCK:   -5.45 KCAL/MOL
REMARK 923 INTER-LIGAND FREE ENERGY PREDICTED BY IDOCK:   -4.84 KCAL/MOL
REMARK 924 INTRA-LIGAND FREE ENERGY PREDICTED BY IDOCK:   -0.62 KCAL/MOL
REMARK 927      BINDING AFFINITY PREDICTED BY RF-SCORE:    0.00 PKD
ROOT
HETATM    1  C   UNL     1     -12.754  14.386  70.284  1.00  0.00    -0.263 C  
HETATM    2  N   UNL     1     -11.473  14.633  69.612  1.00  0.00    -0.275 NA 
HETATM    3  C   UNL     1     -11.088  13.449  68.843  1.00  0.00    -0.266 C  
ENDROOT
BRANCH   2   4
HETATM    4  C   UNL     1     -11.585  15.840  68.766  1.00  0.00    -0.395 C  
BRANCH   4   5
HETATM    5  C   UNL     1     -11.158  15.634  67.300  1.00  0.00    -0.238 C  
BRANCH   5   6
HETATM    6  C   UNL     1     -10.145  16.644  66.843  1.00  0.00    -0.280 A  
HETATM    7  C   UNL     1     -10.407  17.858  66.243  1.00  0.00    -0.364 A  
HETATM    8  N   UNL     1      -9.218  18.486  65.994  1.00  0.00    -0.493 NA 
HETATM    9  C   UNL     1      -8.170  17.707  66.424  1.00  0.00    -0.263 A  
HETATM   10  H   UNL     1      -9.123  19.400  65.553  1.00  0.00     0.000 HD 
HETATM   11  C   UNL     1      -6.793  17.947  66.387  1.00  0.00    -0.277 A  
HETATM   12  C   UNL     1      -5.946  16.959  66.902  1.00  0.00    -0.215 A  
HETATM   13  C   UNL     1      -6.451  15.766  67.432  1.00  0.00    -0.193 A  
HETATM   14  C   UNL     1      -7.843  15.566  67.476  1.00  0.00    -0.191 A  
HETATM   15  C   UNL     1      -8.719  16.543  66.958  1.00  0.00    -0.221 A  
BRANCH  13  16
HETATM   16  C   UNL     1      -5.511  14.708  67.964  1.00  0.00    -0.127 C  
BRANCH  16  17
HETATM   17  C   UNL     1      -6.235  13.469  68.489  1.00  0.00    -0.090 C  
HETATM   18  C   UNL     1      -5.868  12.173  67.791  1.00  0.00    -0.089 C  
HETATM   19  O   UNL     1      -6.105  11.170  68.792  1.00  0.00    -0.043 OA 
HETATM   20  C   UNL     1      -6.064  11.787  70.011  1.00  0.00    -0.158 C  
HETATM   21  N   UNL     1      -5.924  13.142  69.846  1.00  0.00    -0.130 NA 
HETATM   22  O   UNL     1      -6.179  11.223  71.084  1.00  0.00    -0.263 OA 
ENDBRANCH  16  17
ENDBRANCH  13  16
ENDBRANCH   5   6
ENDBRANCH   4   5
ENDBRANCH   2   4
TORSDOF 5
ENDMDL
MODEL      179
REMARK 921   NORMALIZED FREE ENERGY PREDICTED BY IDOCK:   -3.87 KCAL/MOL
REMARK 922        TOTAL FREE ENERGY PREDICTED BY IDOCK:   -5.44 KCAL/MOL
REMARK 923 INTER-LIGAND FREE ENERGY PREDICTED BY IDOCK:   -5.45 KCAL/MOL
REMARK 924 INTRA-LIGAND FREE ENERGY PREDICTED BY IDOCK:    0.01 KCAL/MOL
REMARK 927      BINDING AFFINITY PREDICTED BY RF-SCORE:    0.00 PKD
ROOT
HETATM    1  C   UNL     1     -10.833   6.247  67.068  1.00  0.00    -0.383 C  
HETATM    2  N   UNL     1     -10.157   4.974  67.342  1.00  0.00    -0.179 NA 
HETATM    3  C   UNL     1      -9.370   4.577  66.174  1.00  0.00    -0.156 C  
ENDROOT
BRANCH   2   4
HETATM    4  C   UNL     1      -9.328   5.107  68.559  1.00  0.00    -0.125 C  
BRANCH   4   5
HETATM    5  C   UNL     1      -9.659   4.094  69.671  1.00  0.00    -0.277 C  
BRANCH   5   6
HETATM    6  C   UNL     1      -9.985   4.755  70.980  1.00  0.00    -0.279 A  
HETATM    7  C   UNL     1     -10.318   4.122  72.160  1.00  0.00    -0.102 A  
HETATM    8  N   UNL     1     -10.527   5.073  73.120  1.00  0.00    -0.189 NA 
HETATM    9  C   UNL     1     -10.335   6.329  72.593  1.00  0.00    -0.199 A  
HETATM   10  H   UNL     1     -10.788   4.880  74.086  1.00  0.00     0.000 HD 
HETATM   11  C   UNL     1     -10.426   7.586  73.201  1.00  0.00    -0.419 A  
HETATM   12  C   UNL     1     -10.177   8.712  72.408  1.00  0.00    -0.319 A  
HETATM   13  C   UNL     1      -9.852   8.594  71.051  1.00  0.00    -0.267 A  
HETATM   14  C   UNL     1      -9.746   7.315  70.476  1.00  0.00    -0.176 A  
HETATM   15  C   UNL     1      -9.998   6.162  71.251  1.00  0.00    -0.215 A  
BRANCH  13  16
HETATM   16  C   UNL     1      -9.607   9.829  70.215  1.00  0.00    -0.264 C  
BRANCH  16  17
HETATM   17  C   UNL     1     -10.671  10.049  69.140  1.00  0.00    -0.220 C  
HETATM   18  C   UNL     1     -11.811  10.963  69.551  1.00  0.00    -0.332 C  
HETATM   19  O   UNL     1     -12.262  11.521  68.307  1.00  0.00    -0.561 OA 
HETATM   20  C   UNL     1     -11.236  11.414  67.411  1.00  0.00    -0.305 C  
HETATM   21  N   UNL     1     -10.193  10.722  67.973  1.00  0.00    -0.172 NA 
HETATM   22  O   UNL     1     -11.260  11.832  66.267  1.00  0.00    -0.316 OA 
ENDBRANCH  16  17
ENDBRANCH  13  16
ENDBRANCH   5   6
ENDBRANCH   4   5
ENDBRANCH   2   4
TORSDOF 5
ENDMDL
MODEL      180
REMARK 921   NORMALIZED FREE ENERGY PREDICTED BY IDOCK:   -3.86 KCAL/MOL
REMARK 922        TOTAL FREE ENERGY PREDICTED BY IDOCK:   -5.43 KCAL/MOL
REMARK 923 INTER-LIGAND FREE ENERGY PREDICTED BY IDOCK:   -4.91 KCAL/MOL
REMARK 924 INTRA-LIGAND FREE ENERGY PREDICTED BY IDOCK:   -0.51 KCAL/MOL
REMARK 927      BINDING AFFINITY PREDICTED BY RF-SCORE:    0.00 PKD
ROOT
HETATM    1  C   UNL     1     -12.290  10.741  70.239  1.00  0.00    -0.341 C  
HETATM    2  N   UNL     1     -10.921  10.467  69.787  1.00  0.00    -0.276 NA 
HETATM    3  C   UNL     1     -10.697   9.021  69.753  1.00  0.00    -0.225 C  
ENDROOT
BRANCH   2   4
HETATM    4  C   UNL     1     -10.701  11.101  68.469  1.00  0.00    -0.201 C  
BRANCH   4   5
HETATM    5  C   UNL     1      -9.341  10.775  67.823  1.00  0.00    -0.158 C  
BRANCH   5   6
HETATM    6  C   UNL     1      -8.196  11.479  68.495  1.00  0.00    -0.148 A  
HETATM    7  C   UNL     1      -7.347  10.948  69.444  1.00  0.00    -0.116 A  
HETATM    8  N   UNL     1      -6.432  11.903  69.792  1.00  0.00    -0.267 NA 
HETATM    9  C   UNL     1      -6.660  13.059  69.084  1.00  0.00    -0.104 A  
HETATM   10  H   UNL     1      -5.689  11.775  70.478  1.00  0.00     0.000 HD 
HETATM   11  C   UNL     1      -5.974  14.278  69.102  1.00  0.00    -0.092 A  
HETATM   12  C   UNL     1      -6.438  15.298  68.264  1.00  0.00    -0.115 A  
HETATM   13  C   UNL     1      -7.553  15.116  67.436  1.00  0.00    -0.232 A  
HETATM   14  C   UNL     1      -8.205  13.870  67.424  1.00  0.00    -0.198 A  
HETATM   15  C   UNL     1      -7.762  12.826  68.264  1.00  0.00    -0.136 A  
BRANCH  13  16
HETATM   16  C   UNL     1      -8.042  16.243  66.555  1.00  0.00    -0.337 C  
BRANCH  16  17
HETATM   17  C   UNL     1      -9.405  16.788  66.980  1.00  0.00    -0.233 C  
HETATM   18  C   UNL     1      -9.524  17.129  68.453  1.00  0.00    -0.276 C  
HETATM   19  O   UNL     1     -10.526  18.158  68.484  1.00  0.00    -0.348 OA 
HETATM   20  C   UNL     1     -10.575  18.722  67.239  1.00  0.00    -0.442 C  
HETATM   21  N   UNL     1      -9.743  18.044  66.385  1.00  0.00    -0.368 NA 
HETATM   22  O   UNL     1     -11.285  19.660  66.924  1.00  0.00    -0.299 OA 
ENDBRANCH  16  17
ENDBRANCH  13  16
ENDBRANCH   5   6
ENDBRANCH   4   5
ENDBRANCH   2   4
TORSDOF 5
ENDMDL
MODEL      181
REMARK 921   NORMALIZED FREE ENERGY PREDICTED BY IDOCK:   -3.86 KCAL/MOL
REMARK 922        TOTAL FREE ENERGY PREDICTED BY IDOCK:   -5.42 KCAL/MOL
REMARK 923 INTER-LIGAND FREE ENERGY PREDICTED BY IDOCK:   -5.05 KCAL/MOL
REMARK 924 INTRA-LIGAND FREE ENERGY PREDICTED BY IDOCK:   -0.37 KCAL/MOL
REMARK 927      BINDING AFFINITY PREDICTED BY RF-SCORE:    0.00 PKD
ROOT
HETATM    1  C   UNL     1      -6.737   5.939  63.700  1.00  0.00    -0.037 C  
HETATM    2  N   UNL     1      -6.338   7.129  64.461  1.00  0.00    -0.037 NA 
HETATM    3  C   UNL     1      -6.542   8.324  63.641  1.00  0.00    -0.076 C  
ENDROOT
BRANCH   2   4
HETATM    4  C   UNL     1      -7.097   7.181  65.728  1.00  0.00    -0.069 C  
BRANCH   4   5
HETATM    5  C   UNL     1      -8.623   7.042  65.565  1.00  0.00    -0.091 C  
BRANCH   5   6
HETATM    6  C   UNL     1      -9.375   7.393  66.817  1.00  0.00    -0.202 A  
HETATM    7  C   UNL     1      -9.913   6.508  67.728  1.00  0.00    -0.131 A  
HETATM    8  N   UNL     1     -10.504   7.224  68.733  1.00  0.00    -0.201 NA 
HETATM    9  C   UNL     1     -10.362   8.572  68.502  1.00  0.00    -0.198 A  
HETATM   10  H   UNL     1     -10.981   6.817  69.536  1.00  0.00     0.000 HD 
HETATM   11  C   UNL     1     -10.790   9.667  69.260  1.00  0.00    -0.227 A  
HETATM   12  C   UNL     1     -10.504  10.947  68.773  1.00  0.00    -0.224 A  
HETATM   13  C   UNL     1      -9.818  11.135  67.566  1.00  0.00    -0.197 A  
HETATM   14  C   UNL     1      -9.381  10.013  66.841  1.00  0.00    -0.188 A  
HETATM   15  C   UNL     1      -9.661   8.710  67.306  1.00  0.00    -0.241 A  
BRANCH  13  16
HETATM   16  C   UNL     1      -9.540  12.531  67.056  1.00  0.00    -0.216 C  
BRANCH  16  17
HETATM   17  C   UNL     1     -10.751  13.177  66.383  1.00  0.00    -0.284 C  
HETATM   18  C   UNL     1     -10.432  13.995  65.147  1.00  0.00    -0.397 C  
HETATM   19  O   UNL     1     -11.640  13.928  64.374  1.00  0.00    -0.382 OA 
HETATM   20  C   UNL     1     -12.332  12.823  64.786  1.00  0.00    -0.478 C  
HETATM   21  N   UNL     1     -11.693  12.241  65.851  1.00  0.00    -0.463 NA 
HETATM   22  O   UNL     1     -13.383  12.438  64.308  1.00  0.00    -0.716 OA 
ENDBRANCH  16  17
ENDBRANCH  13  16
ENDBRANCH   5   6
ENDBRANCH   4   5
ENDBRANCH   2   4
TORSDOF 5
ENDMDL
MODEL      182
REMARK 921   NORMALIZED FREE ENERGY PREDICTED BY IDOCK:   -3.83 KCAL/MOL
REMARK 922        TOTAL FREE ENERGY PREDICTED BY IDOCK:   -5.39 KCAL/MOL
REMARK 923 INTER-LIGAND FREE ENERGY PREDICTED BY IDOCK:   -5.18 KCAL/MOL
REMARK 924 INTRA-LIGAND FREE ENERGY PREDICTED BY IDOCK:   -0.21 KCAL/MOL
REMARK 927      BINDING AFFINITY PREDICTED BY RF-SCORE:    0.00 PKD
ROOT
HETATM    1  C   UNL     1     -10.360  20.325  67.305  1.00  0.00    -0.280 C  
HETATM    2  N   UNL     1      -9.523  19.128  67.159  1.00  0.00    -0.308 NA 
HETATM    3  C   UNL     1      -8.165  19.524  66.783  1.00  0.00    -0.296 C  
ENDROOT
BRANCH   2   4
HETATM    4  C   UNL     1      -9.554  18.348  68.415  1.00  0.00    -0.345 C  
BRANCH   4   5
HETATM    5  C   UNL     1     -10.055  16.900  68.255  1.00  0.00    -0.302 C  
BRANCH   5   6
HETATM    6  C   UNL     1      -8.958  15.886  68.412  1.00  0.00    -0.189 A  
HETATM    7  C   UNL     1      -7.636  16.144  68.708  1.00  0.00    -0.193 A  
HETATM    8  N   UNL     1      -6.966  14.954  68.778  1.00  0.00    -0.103 NA 
HETATM    9  C   UNL     1      -7.826  13.910  68.536  1.00  0.00    -0.139 A  
HETATM   10  H   UNL     1      -5.971  14.856  68.980  1.00  0.00     0.000 HD 
HETATM   11  C   UNL     1      -7.589  12.531  68.518  1.00  0.00    -0.119 A  
HETATM   12  C   UNL     1      -8.670  11.688  68.236  1.00  0.00    -0.163 A  
HETATM   13  C   UNL     1      -9.947  12.199  67.974  1.00  0.00    -0.203 A  
HETATM   14  C   UNL     1     -10.157  13.589  68.024  1.00  0.00    -0.244 A  
HETATM   15  C   UNL     1      -9.083  14.462  68.300  1.00  0.00    -0.193 A  
BRANCH  13  16
HETATM   16  C   UNL     1     -11.092  11.265  67.653  1.00  0.00    -0.336 C  
BRANCH  16  17
HETATM   17  C   UNL     1     -11.843  10.787  68.895  1.00  0.00    -0.216 C  
HETATM   18  C   UNL     1     -10.978  10.104  69.938  1.00  0.00    -0.293 C  
HETATM   19  O   UNL     1     -11.678  10.344  71.169  1.00  0.00    -0.352 OA 
HETATM   20  C   UNL     1     -12.481  11.434  70.980  1.00  0.00    -0.383 C  
HETATM   21  N   UNL     1     -12.420  11.840  69.671  1.00  0.00    -0.047 NA 
HETATM   22  O   UNL     1     -13.182  11.943  71.837  1.00  0.00    -0.482 OA 
ENDBRANCH  16  17
ENDBRANCH  13  16
ENDBRANCH   5   6
ENDBRANCH   4   5
ENDBRANCH   2   4
TORSDOF 5
ENDMDL
MODEL      183
REMARK 921   NORMALIZED FREE ENERGY PREDICTED BY IDOCK:   -3.82 KCAL/MOL
REMARK 922        TOTAL FREE ENERGY PREDICTED BY IDOCK:   -5.37 KCAL/MOL
REMARK 923 INTER-LIGAND FREE ENERGY PREDICTED BY IDOCK:   -4.91 KCAL/MOL
REMARK 924 INTRA-LIGAND FREE ENERGY PREDICTED BY IDOCK:   -0.46 KCAL/MOL
REMARK 927      BINDING AFFINITY PREDICTED BY RF-SCORE:    0.00 PKD
ROOT
HETATM    1  C   UNL     1     -10.855  15.284  68.222  1.00  0.00    -0.262 C  
HETATM    2  N   UNL     1     -11.374  14.051  67.620  1.00  0.00    -0.297 NA 
HETATM    3  C   UNL     1     -11.821  14.325  66.253  1.00  0.00    -0.406 C  
ENDROOT
BRANCH   2   4
HETATM    4  C   UNL     1     -10.333  13.002  67.670  1.00  0.00    -0.222 C  
BRANCH   4   5
HETATM    5  C   UNL     1     -10.876  11.573  67.865  1.00  0.00    -0.257 C  
BRANCH   5   6
HETATM    6  C   UNL     1     -10.320  10.600  66.865  1.00  0.00    -0.288 A  
HETATM    7  C   UNL     1     -10.196  10.797  65.506  1.00  0.00    -0.266 A  
HETATM    8  N   UNL     1      -9.632   9.681  64.953  1.00  0.00    -0.425 NA 
HETATM    9  C   UNL     1      -9.377   8.746  65.928  1.00  0.00    -0.218 A  
HETATM   10  H   UNL     1      -9.431   9.559  63.961  1.00  0.00     0.000 HD 
HETATM   11  C   UNL     1      -8.801   7.475  65.831  1.00  0.00    -0.157 A  
HETATM   12  C   UNL     1      -8.665   6.730  67.008  1.00  0.00    -0.114 A  
HETATM   13  C   UNL     1      -9.093   7.230  68.244  1.00  0.00    -0.134 A  
HETATM   14  C   UNL     1      -9.646   8.521  68.311  1.00  0.00    -0.156 A  
HETATM   15  C   UNL     1      -9.801   9.291  67.138  1.00  0.00    -0.251 A  
BRANCH  13  16
HETATM   16  C   UNL     1      -8.950   6.394  69.496  1.00  0.00    -0.136 C  
BRANCH  16  17
HETATM   17  C   UNL     1     -10.001   6.718  70.557  1.00  0.00    -0.183 C  
HETATM   18  C   UNL     1     -10.760   5.516  71.089  1.00  0.00    -0.210 C  
HETATM   19  O   UNL     1     -11.145   5.917  72.413  1.00  0.00    -0.250 OA 
HETATM   20  C   UNL     1     -10.297   6.916  72.804  1.00  0.00    -0.213 C  
HETATM   21  N   UNL     1      -9.463   7.254  71.768  1.00  0.00    -0.150 NA 
HETATM   22  O   UNL     1     -10.310   7.458  73.895  1.00  0.00    -0.317 OA 
ENDBRANCH  16  17
ENDBRANCH  13  16
ENDBRANCH   5   6
ENDBRANCH   4   5
ENDBRANCH   2   4
TORSDOF 5
ENDMDL
MODEL      184
REMARK 921   NORMALIZED FREE ENERGY PREDICTED BY IDOCK:   -3.81 KCAL/MOL
REMARK 922        TOTAL FREE ENERGY PREDICTED BY IDOCK:   -5.36 KCAL/MOL
REMARK 923 INTER-LIGAND FREE ENERGY PREDICTED BY IDOCK:   -5.12 KCAL/MOL
REMARK 924 INTRA-LIGAND FREE ENERGY PREDICTED BY IDOCK:   -0.24 KCAL/MOL
REMARK 927      BINDING AFFINITY PREDICTED BY RF-SCORE:    0.00 PKD
ROOT
HETATM    1  C   UNL     1     -12.270  14.182  66.636  1.00  0.00    -0.418 C  
HETATM    2  N   UNL     1     -11.300  14.240  65.537  1.00  0.00    -0.318 NA 
HETATM    3  C   UNL     1     -12.011  14.318  64.260  1.00  0.00    -0.425 C  
ENDROOT
BRANCH   2   4
HETATM    4  C   UNL     1     -10.389  15.387  65.743  1.00  0.00    -0.361 C  
BRANCH   4   5
HETATM    5  C   UNL     1      -9.740  15.443  67.139  1.00  0.00    -0.219 C  
BRANCH   5   6
HETATM    6  C   UNL     1      -8.467  14.650  67.220  1.00  0.00    -0.234 A  
HETATM    7  C   UNL     1      -7.189  15.157  67.335  1.00  0.00    -0.199 A  
HETATM    8  N   UNL     1      -6.310  14.110  67.392  1.00  0.00    -0.368 NA 
HETATM    9  C   UNL     1      -6.987  12.916  67.319  1.00  0.00    -0.058 A  
HETATM   10  H   UNL     1      -5.298  14.203  67.477  1.00  0.00     0.000 HD 
HETATM   11  C   UNL     1      -6.507  11.603  67.352  1.00  0.00    -0.103 A  
HETATM   12  C   UNL     1      -7.442  10.566  67.253  1.00  0.00    -0.095 A  
HETATM   13  C   UNL     1      -8.811  10.825  67.120  1.00  0.00    -0.135 A  
HETATM   14  C   UNL     1      -9.264  12.156  67.115  1.00  0.00    -0.193 A  
HETATM   15  C   UNL     1      -8.342  13.222  67.206  1.00  0.00    -0.182 A  
BRANCH  13  16
HETATM   16  C   UNL     1      -9.796   9.684  66.997  1.00  0.00    -0.249 C  
BRANCH  16  17
HETATM   17  C   UNL     1     -10.650   9.489  68.249  1.00  0.00    -0.216 C  
HETATM   18  C   UNL     1      -9.871   9.440  69.550  1.00  0.00    -0.183 C  
HETATM   19  O   UNL     1     -10.814   9.906  70.528  1.00  0.00    -0.287 OA 
HETATM   20  C   UNL     1     -11.766  10.632  69.868  1.00  0.00    -0.317 C  
HETATM   21  N   UNL     1     -11.551  10.568  68.515  1.00  0.00    -0.310 NA 
HETATM   22  O   UNL     1     -12.695  11.214  70.400  1.00  0.00    -0.250 OA 
ENDBRANCH  16  17
ENDBRANCH  13  16
ENDBRANCH   5   6
ENDBRANCH   4   5
ENDBRANCH   2   4
TORSDOF 5
ENDMDL
MODEL      185
REMARK 921   NORMALIZED FREE ENERGY PREDICTED BY IDOCK:   -3.79 KCAL/MOL
REMARK 922        TOTAL FREE ENERGY PREDICTED BY IDOCK:   -5.33 KCAL/MOL
REMARK 923 INTER-LIGAND FREE ENERGY PREDICTED BY IDOCK:   -5.03 KCAL/MOL
REMARK 924 INTRA-LIGAND FREE ENERGY PREDICTED BY IDOCK:   -0.30 KCAL/MOL
REMARK 927      BINDING AFFINITY PREDICTED BY RF-SCORE:    0.00 PKD
ROOT
HETATM    1  C   UNL     1      -9.498  10.957  64.987  1.00  0.00    -0.233 C  
HETATM    2  N   UNL     1      -8.610  10.502  66.063  1.00  0.00    -0.154 NA 
HETATM    3  C   UNL     1      -7.608  11.532  66.340  1.00  0.00     0.027 C  
ENDROOT
BRANCH   2   4
HETATM    4  C   UNL     1      -9.414  10.165  67.257  1.00  0.00    -0.154 C  
BRANCH   4   5
HETATM    5  C   UNL     1     -10.516   9.117  67.010  1.00  0.00    -0.311 C  
BRANCH   5   6
HETATM    6  C   UNL     1     -10.062   7.717  67.308  1.00  0.00    -0.306 A  
HETATM    7  C   UNL     1      -9.318   6.900  66.482  1.00  0.00    -0.158 A  
HETATM    8  N   UNL     1      -9.102   5.712  67.124  1.00  0.00    -0.112 NA 
HETATM    9  C   UNL     1      -9.691   5.730  68.366  1.00  0.00    -0.133 A  
HETATM   10  H   UNL     1      -8.581   4.927  66.737  1.00  0.00     0.000 HD 
HETATM   11  C   UNL     1      -9.718   4.752  69.366  1.00  0.00    -0.266 A  
HETATM   12  C   UNL     1     -10.406   5.049  70.548  1.00  0.00    -0.285 A  
HETATM   13  C   UNL     1     -11.052   6.277  70.730  1.00  0.00    -0.377 A  
HETATM   14  C   UNL     1     -10.986   7.248  69.715  1.00  0.00    -0.235 A  
HETATM   15  C   UNL     1     -10.304   6.973  68.510  1.00  0.00    -0.204 A  
BRANCH  13  16
HETATM   16  C   UNL     1     -11.804   6.562  72.011  1.00  0.00    -0.374 C  
BRANCH  16  17
HETATM   17  C   UNL     1     -10.965   7.309  73.047  1.00  0.00    -0.344 C  
HETATM   18  C   UNL     1     -10.344   6.430  74.117  1.00  0.00    -0.317 C  
HETATM   19  O   UNL     1      -9.171   7.157  74.514  1.00  0.00    -0.206 OA 
HETATM   20  C   UNL     1      -8.845   8.004  73.491  1.00  0.00    -0.268 C  
HETATM   21  N   UNL     1      -9.801   7.942  72.510  1.00  0.00    -0.212 NA 
HETATM   22  O   UNL     1      -7.873   8.738  73.474  1.00  0.00    -0.408 OA 
ENDBRANCH  16  17
ENDBRANCH  13  16
ENDBRANCH   5   6
ENDBRANCH   4   5
ENDBRANCH   2   4
TORSDOF 5
ENDMDL
MODEL      186
REMARK 921   NORMALIZED FREE ENERGY PREDICTED BY IDOCK:   -3.78 KCAL/MOL
REMARK 922        TOTAL FREE ENERGY PREDICTED BY IDOCK:   -5.32 KCAL/MOL
REMARK 923 INTER-LIGAND FREE ENERGY PREDICTED BY IDOCK:   -4.83 KCAL/MOL
REMARK 924 INTRA-LIGAND FREE ENERGY PREDICTED BY IDOCK:   -0.49 KCAL/MOL
REMARK 927      BINDING AFFINITY PREDICTED BY RF-SCORE:    0.00 PKD
ROOT
HETATM    1  C   UNL     1      -9.782   5.691  66.359  1.00  0.00    -0.156 C  
HETATM    2  N   UNL     1      -9.424   5.051  67.629  1.00  0.00    -0.126 NA 
HETATM    3  C   UNL     1      -9.518   3.597  67.487  1.00  0.00    -0.191 C  
ENDROOT
BRANCH   2   4
HETATM    4  C   UNL     1      -8.073   5.489  68.039  1.00  0.00    -0.096 C  
BRANCH   4   5
HETATM    5  C   UNL     1      -7.998   6.942  68.543  1.00  0.00    -0.120 C  
BRANCH   5   6
HETATM    6  C   UNL     1      -8.685   7.133  69.866  1.00  0.00    -0.142 A  
HETATM    7  C   UNL     1      -8.406   6.466  71.041  1.00  0.00    -0.123 A  
HETATM    8  N   UNL     1      -9.240   6.936  72.017  1.00  0.00    -0.141 NA 
HETATM    9  C   UNL     1     -10.066   7.910  71.507  1.00  0.00    -0.180 A  
HETATM   10  H   UNL     1      -9.248   6.612  72.983  1.00  0.00     0.000 HD 
HETATM   11  C   UNL     1     -11.058   8.671  72.134  1.00  0.00    -0.434 A  
HETATM   12  C   UNL     1     -11.754   9.602  71.354  1.00  0.00    -0.478 A  
HETATM   13  C   UNL     1     -11.478   9.768  69.992  1.00  0.00    -0.232 A  
HETATM   14  C   UNL     1     -10.458   9.004  69.397  1.00  0.00    -0.229 A  
HETATM   15  C   UNL     1      -9.745   8.053  70.159  1.00  0.00    -0.176 A  
BRANCH  13  16
HETATM   16  C   UNL     1     -12.260  10.769  69.171  1.00  0.00    -0.122 C  
BRANCH  16  17
HETATM   17  C   UNL     1     -11.375  11.826  68.511  1.00  0.00    -0.273 C  
HETATM   18  C   UNL     1     -11.188  11.655  67.015  1.00  0.00    -0.314 C  
HETATM   19  O   UNL     1     -10.939  12.991  66.550  1.00  0.00    -0.279 OA 
HETATM   20  C   UNL     1     -11.447  13.853  67.482  1.00  0.00    -0.340 C  
HETATM   21  N   UNL     1     -11.909  13.151  68.566  1.00  0.00    -0.340 NA 
HETATM   22  O   UNL     1     -11.450  15.067  67.383  1.00  0.00    -0.341 OA 
ENDBRANCH  16  17
ENDBRANCH  13  16
ENDBRANCH   5   6
ENDBRANCH   4   5
ENDBRANCH   2   4
TORSDOF 5
ENDMDL
MODEL      187
REMARK 921   NORMALIZED FREE ENERGY PREDICTED BY IDOCK:   -3.77 KCAL/MOL
REMARK 922        TOTAL FREE ENERGY PREDICTED BY IDOCK:   -5.31 KCAL/MOL
REMARK 923 INTER-LIGAND FREE ENERGY PREDICTED BY IDOCK:   -4.95 KCAL/MOL
REMARK 924 INTRA-LIGAND FREE ENERGY PREDICTED BY IDOCK:   -0.35 KCAL/MOL
REMARK 927      BINDING AFFINITY PREDICTED BY RF-SCORE:    0.00 PKD
ROOT
HETATM    1  C   UNL     1     -10.159   8.844  66.460  1.00  0.00    -0.286 C  
HETATM    2  N   UNL     1      -9.939  10.291  66.559  1.00  0.00    -0.215 NA 
HETATM    3  C   UNL     1     -11.045  10.904  67.296  1.00  0.00    -0.283 C  
ENDROOT
BRANCH   2   4
HETATM    4  C   UNL     1      -8.629  10.549  67.195  1.00  0.00    -0.127 C  
BRANCH   4   5
HETATM    5  C   UNL     1      -7.703  11.483  66.394  1.00  0.00     0.003 C  
BRANCH   5   6
HETATM    6  C   UNL     1      -7.147  12.603  67.226  1.00  0.00    -0.101 A  
HETATM    7  C   UNL     1      -5.841  12.743  67.649  1.00  0.00    -0.141 A  
HETATM    8  N   UNL     1      -5.739  13.901  68.369  1.00  0.00    -0.094 NA 
HETATM    9  C   UNL     1      -6.959  14.533  68.427  1.00  0.00    -0.107 A  
HETATM   10  H   UNL     1      -4.882  14.245  68.801  1.00  0.00     0.000 HD 
HETATM   11  C   UNL     1      -7.322  15.738  69.037  1.00  0.00    -0.177 A  
HETATM   12  C   UNL     1      -8.658  16.142  68.936  1.00  0.00    -0.245 A  
HETATM   13  C   UNL     1      -9.606  15.370  68.253  1.00  0.00    -0.205 A  
HETATM   14  C   UNL     1      -9.203  14.176  67.630  1.00  0.00    -0.193 A  
HETATM   15  C   UNL     1      -7.863  13.741  67.722  1.00  0.00    -0.174 A  
BRANCH  13  16
HETATM   16  C   UNL     1     -11.047  15.823  68.176  1.00  0.00    -0.341 C  
BRANCH  16  17
HETATM   17  C   UNL     1     -11.853  15.478  69.427  1.00  0.00    -0.374 C  
HETATM   18  C   UNL     1     -11.843  14.009  69.806  1.00  0.00    -0.324 C  
HETATM   19  O   UNL     1     -12.048  14.024  71.228  1.00  0.00    -0.336 OA 
HETATM   20  C   UNL     1     -11.676  15.258  71.685  1.00  0.00    -0.399 C  
HETATM   21  N   UNL     1     -11.349  16.069  70.628  1.00  0.00    -0.385 NA 
HETATM   22  O   UNL     1     -11.677  15.600  72.853  1.00  0.00    -0.449 OA 
ENDBRANCH  16  17
ENDBRANCH  13  16
ENDBRANCH   5   6
ENDBRANCH   4   5
ENDBRANCH   2   4
TORSDOF 5
ENDMDL
MODEL      188
REMARK 921   NORMALIZED FREE ENERGY PREDICTED BY IDOCK:   -3.77 KCAL/MOL
REMARK 922        TOTAL FREE ENERGY PREDICTED BY IDOCK:   -5.31 KCAL/MOL
REMARK 923 INTER-LIGAND FREE ENERGY PREDICTED BY IDOCK:   -4.93 KCAL/MOL
REMARK 924 INTRA-LIGAND FREE ENERGY PREDICTED BY IDOCK:   -0.37 KCAL/MOL
REMARK 927      BINDING AFFINITY PREDICTED BY RF-SCORE:    0.00 PKD
ROOT
HETATM    1  C   UNL     1      -6.460  14.085  69.542  1.00  0.00    -0.122 C  
HETATM    2  N   UNL     1      -6.623  15.529  69.344  1.00  0.00    -0.147 NA 
HETATM    3  C   UNL     1      -5.507  16.043  68.548  1.00  0.00    -0.100 C  
ENDROOT
BRANCH   2   4
HETATM    4  C   UNL     1      -7.933  15.796  68.711  1.00  0.00    -0.180 C  
BRANCH   4   5
HETATM    5  C   UNL     1      -7.891  15.898  67.175  1.00  0.00    -0.249 C  
BRANCH   5   6
HETATM    6  C   UNL     1      -9.160  15.423  66.527  1.00  0.00    -0.334 A  
HETATM    7  C   UNL     1      -9.943  16.129  65.638  1.00  0.00    -0.297 A  
HETATM    8  N   UNL     1     -11.000  15.343  65.269  1.00  0.00    -0.374 NA 
HETATM    9  C   UNL     1     -10.927  14.123  65.899  1.00  0.00    -0.297 A  
HETATM   10  H   UNL     1     -11.736  15.622  64.621  1.00  0.00     0.000 HD 
HETATM   11  C   UNL     1     -11.773  13.012  65.816  1.00  0.00    -0.427 A  
HETATM   12  C   UNL     1     -11.449  11.888  66.585  1.00  0.00    -0.382 A  
HETATM   13  C   UNL     1     -10.322  11.870  67.416  1.00  0.00    -0.228 A  
HETATM   14  C   UNL     1      -9.479  12.995  67.458  1.00  0.00    -0.198 A  
HETATM   15  C   UNL     1      -9.785  14.144  66.698  1.00  0.00    -0.297 A  
BRANCH  13  16
HETATM   16  C   UNL     1     -10.008  10.648  68.249  1.00  0.00    -0.173 C  
BRANCH  16  17
HETATM   17  C   UNL     1      -9.800   9.387  67.411  1.00  0.00    -0.172 C  
HETATM   18  C   UNL     1      -8.525   8.624  67.715  1.00  0.00    -0.125 C  
HETATM   19  O   UNL     1      -8.847   7.270  67.358  1.00  0.00    -0.120 OA 
HETATM   20  C   UNL     1     -10.208   7.149  67.386  1.00  0.00    -0.226 C  
HETATM   21  N   UNL     1     -10.782   8.371  67.632  1.00  0.00    -0.181 NA 
HETATM   22  O   UNL     1     -10.823   6.119  67.178  1.00  0.00    -0.308 OA 
ENDBRANCH  16  17
ENDBRANCH  13  16
ENDBRANCH   5   6
ENDBRANCH   4   5
ENDBRANCH   2   4
TORSDOF 5
ENDMDL
MODEL      189
REMARK 921   NORMALIZED FREE ENERGY PREDICTED BY IDOCK:   -3.76 KCAL/MOL
REMARK 922        TOTAL FREE ENERGY PREDICTED BY IDOCK:   -5.29 KCAL/MOL
REMARK 923 INTER-LIGAND FREE ENERGY PREDICTED BY IDOCK:   -4.97 KCAL/MOL
REMARK 924 INTRA-LIGAND FREE ENERGY PREDICTED BY IDOCK:   -0.32 KCAL/MOL
REMARK 927      BINDING AFFINITY PREDICTED BY RF-SCORE:    0.00 PKD
ROOT
HETATM    1  C   UNL     1      -7.667   5.560  68.613  1.00  0.00    -0.088 C  
HETATM    2  N   UNL     1      -8.741   6.148  69.422  1.00  0.00    -0.122 NA 
HETATM    3  C   UNL     1      -9.649   5.092  69.872  1.00  0.00    -0.176 C  
ENDROOT
BRANCH   2   4
HETATM    4  C   UNL     1      -8.153   6.901  70.550  1.00  0.00    -0.115 C  
BRANCH   4   5
HETATM    5  C   UNL     1      -8.031   8.418  70.311  1.00  0.00    -0.102 C  
BRANCH   5   6
HETATM    6  C   UNL     1      -9.343   9.135  70.449  1.00  0.00    -0.272 A  
HETATM    7  C   UNL     1     -10.151   9.164  71.567  1.00  0.00    -0.311 A  
HETATM    8  N   UNL     1     -11.246   9.936  71.293  1.00  0.00    -0.344 NA 
HETATM    9  C   UNL     1     -11.174  10.423  70.009  1.00  0.00    -0.316 A  
HETATM   10  H   UNL     1     -12.006  10.123  71.947  1.00  0.00     0.000 HD 
HETATM   11  C   UNL     1     -12.054  11.257  69.310  1.00  0.00    -0.372 A  
HETATM   12  C   UNL     1     -11.722  11.593  67.993  1.00  0.00    -0.351 A  
HETATM   13  C   UNL     1     -10.556  11.112  67.386  1.00  0.00    -0.272 A  
HETATM   14  C   UNL     1      -9.681  10.295  68.124  1.00  0.00    -0.158 A  
HETATM   15  C   UNL     1      -9.994   9.935  69.453  1.00  0.00    -0.227 A  
BRANCH  13  16
HETATM   16  C   UNL     1     -10.234  11.478  65.955  1.00  0.00    -0.286 C  
BRANCH  16  17
HETATM   17  C   UNL     1      -9.673  12.892  65.807  1.00  0.00    -0.146 C  
HETATM   18  C   UNL     1     -10.639  13.902  65.217  1.00  0.00    -0.361 C  
HETATM   19  O   UNL     1     -10.196  15.154  65.763  1.00  0.00    -0.293 OA 
HETATM   20  C   UNL     1      -9.481  14.880  66.896  1.00  0.00    -0.237 C  
HETATM   21  N   UNL     1      -9.348  13.524  67.048  1.00  0.00    -0.239 NA 
HETATM   22  O   UNL     1      -8.997  15.717  67.636  1.00  0.00    -0.184 OA 
ENDBRANCH  16  17
ENDBRANCH  13  16
ENDBRANCH   5   6
ENDBRANCH   4   5
ENDBRANCH   2   4
TORSDOF 5
ENDMDL
MODEL      190
REMARK 921   NORMALIZED FREE ENERGY PREDICTED BY IDOCK:   -3.72 KCAL/MOL
REMARK 922        TOTAL FREE ENERGY PREDICTED BY IDOCK:   -5.25 KCAL/MOL
REMARK 923 INTER-LIGAND FREE ENERGY PREDICTED BY IDOCK:   -6.05 KCAL/MOL
REMARK 924 INTRA-LIGAND FREE ENERGY PREDICTED BY IDOCK:    0.80 KCAL/MOL
REMARK 927      BINDING AFFINITY PREDICTED BY RF-SCORE:    0.00 PKD
ROOT
HETATM    1  C   UNL     1      -6.967  19.707  69.450  1.00  0.00    -0.320 C  
HETATM    2  N   UNL     1      -7.895  19.285  68.395  1.00  0.00    -0.328 NA 
HETATM    3  C   UNL     1      -9.257  19.680  68.756  1.00  0.00    -0.280 C  
ENDROOT
BRANCH   2   4
HETATM    4  C   UNL     1      -7.468  19.862  67.102  1.00  0.00    -0.257 C  
BRANCH   4   5
HETATM    5  C   UNL     1      -7.246  18.827  65.983  1.00  0.00    -0.295 C  
BRANCH   5   6
HETATM    6  C   UNL     1      -6.954  17.453  66.514  1.00  0.00    -0.295 A  
HETATM    7  C   UNL     1      -5.714  16.942  66.836  1.00  0.00    -0.164 A  
HETATM    8  N   UNL     1      -5.876  15.664  67.296  1.00  0.00    -0.332 NA 
HETATM    9  C   UNL     1      -7.207  15.321  67.287  1.00  0.00    -0.178 A  
HETATM   10  H   UNL     1      -5.119  15.054  67.602  1.00  0.00     0.000 HD 
HETATM   11  C   UNL     1      -7.836  14.135  67.679  1.00  0.00    -0.190 A  
HETATM   12  C   UNL     1      -9.229  14.065  67.555  1.00  0.00    -0.197 A  
HETATM   13  C   UNL     1      -9.974  15.138  67.052  1.00  0.00    -0.242 A  
HETATM   14  C   UNL     1      -9.313  16.326  66.689  1.00  0.00    -0.272 A  
HETATM   15  C   UNL     1      -7.909  16.421  66.798  1.00  0.00    -0.301 A  
BRANCH  13  16
HETATM   16  C   UNL     1     -11.475  15.026  66.912  1.00  0.00    -0.266 C  
BRANCH  16  17
HETATM   17  C   UNL     1     -11.992  13.602  67.113  1.00  0.00    -0.393 C  
HETATM   18  C   UNL     1     -11.274  12.543  66.299  1.00  0.00    -0.315 C  
HETATM   19  O   UNL     1     -11.432  11.349  67.082  1.00  0.00    -0.450 OA 
HETATM   20  C   UNL     1     -11.686  11.731  68.369  1.00  0.00    -0.325 C  
HETATM   21  N   UNL     1     -11.809  13.095  68.437  1.00  0.00    -0.350 NA 
HETATM   22  O   UNL     1     -11.828  10.970  69.309  1.00  0.00    -0.298 OA 
ENDBRANCH  16  17
ENDBRANCH  13  16
ENDBRANCH   5   6
ENDBRANCH   4   5
ENDBRANCH   2   4
TORSDOF 5
ENDMDL
MODEL      191
REMARK 921   NORMALIZED FREE ENERGY PREDICTED BY IDOCK:   -3.70 KCAL/MOL
REMARK 922        TOTAL FREE ENERGY PREDICTED BY IDOCK:   -5.23 KCAL/MOL
REMARK 923 INTER-LIGAND FREE ENERGY PREDICTED BY IDOCK:   -5.57 KCAL/MOL
REMARK 924 INTRA-LIGAND FREE ENERGY PREDICTED BY IDOCK:    0.35 KCAL/MOL
REMARK 927      BINDING AFFINITY PREDICTED BY RF-SCORE:    0.00 PKD
ROOT
HETATM    1  C   UNL     1      -7.501  13.417  68.219  1.00  0.00    -0.129 C  
HETATM    2  N   UNL     1      -7.102  12.104  67.701  1.00  0.00    -0.111 NA 
HETATM    3  C   UNL     1      -5.651  12.072  67.512  1.00  0.00    -0.105 C  
ENDROOT
BRANCH   2   4
HETATM    4  C   UNL     1      -7.571  11.047  68.623  1.00  0.00    -0.124 C  
BRANCH   4   5
HETATM    5  C   UNL     1      -9.009  10.561  68.357  1.00  0.00    -0.141 C  
BRANCH   5   6
HETATM    6  C   UNL     1      -9.245  10.207  66.917  1.00  0.00    -0.168 A  
HETATM    7  C   UNL     1      -9.066   8.969  66.334  1.00  0.00    -0.170 A  
HETATM    8  N   UNL     1      -9.403   9.058  65.012  1.00  0.00    -0.443 NA 
HETATM    9  C   UNL     1      -9.805  10.338  64.709  1.00  0.00    -0.334 A  
HETATM   10  H   UNL     1      -9.360   8.287  64.346  1.00  0.00     0.000 HD 
HETATM   11  C   UNL     1     -10.246  10.882  63.499  1.00  0.00    -0.379 A  
HETATM   12  C   UNL     1     -10.594  12.238  63.483  1.00  0.00    -0.488 A  
HETATM   13  C   UNL     1     -10.501  13.030  64.634  1.00  0.00    -0.400 A  
HETATM   14  C   UNL     1     -10.076  12.446  65.840  1.00  0.00    -0.272 A  
HETATM   15  C   UNL     1      -9.714  11.083  65.883  1.00  0.00    -0.267 A  
BRANCH  13  16
HETATM   16  C   UNL     1     -10.865  14.497  64.582  1.00  0.00    -0.351 C  
BRANCH  16  17
HETATM   17  C   UNL     1     -11.602  14.977  65.832  1.00  0.00    -0.165 C  
HETATM   18  C   UNL     1     -12.285  13.882  66.629  1.00  0.00    -0.424 C  
HETATM   19  O   UNL     1     -12.307  14.401  67.968  1.00  0.00    -0.201 OA 
HETATM   20  C   UNL     1     -11.326  15.349  68.059  1.00  0.00    -0.341 C  
HETATM   21  N   UNL     1     -10.750  15.546  66.830  1.00  0.00    -0.306 NA 
HETATM   22  O   UNL     1     -11.036  15.960  69.072  1.00  0.00    -0.253 OA 
ENDBRANCH  16  17
ENDBRANCH  13  16
ENDBRANCH   5   6
ENDBRANCH   4   5
ENDBRANCH   2   4
TORSDOF 5
ENDMDL
MODEL      192
REMARK 921   NORMALIZED FREE ENERGY PREDICTED BY IDOCK:   -3.68 KCAL/MOL
REMARK 922        TOTAL FREE ENERGY PREDICTED BY IDOCK:   -5.20 KCAL/MOL
REMARK 923 INTER-LIGAND FREE ENERGY PREDICTED BY IDOCK:   -4.82 KCAL/MOL
REMARK 924 INTRA-LIGAND FREE ENERGY PREDICTED BY IDOCK:   -0.38 KCAL/MOL
REMARK 927      BINDING AFFINITY PREDICTED BY RF-SCORE:    0.00 PKD
ROOT
HETATM    1  C   UNL     1      -9.965  19.907  68.150  1.00  0.00    -0.427 C  
HETATM    2  N   UNL     1      -9.519  19.327  66.878  1.00  0.00    -0.312 NA 
HETATM    3  C   UNL     1     -10.496  19.632  65.832  1.00  0.00    -0.493 C  
ENDROOT
BRANCH   2   4
HETATM    4  C   UNL     1      -8.169  19.834  66.552  1.00  0.00    -0.335 C  
BRANCH   4   5
HETATM    5  C   UNL     1      -7.156  18.743  66.153  1.00  0.00    -0.290 C  
BRANCH   5   6
HETATM    6  C   UNL     1      -6.878  17.775  67.267  1.00  0.00    -0.190 A  
HETATM    7  C   UNL     1      -5.902  17.893  68.234  1.00  0.00    -0.168 A  
HETATM    8  N   UNL     1      -5.985  16.814  69.070  1.00  0.00    -0.155 NA 
HETATM    9  C   UNL     1      -7.005  15.983  68.673  1.00  0.00    -0.133 A  
HETATM   10  H   UNL     1      -5.377  16.649  69.872  1.00  0.00     0.000 HD 
HETATM   11  C   UNL     1      -7.461  14.783  69.230  1.00  0.00    -0.162 A  
HETATM   12  C   UNL     1      -8.534  14.140  68.602  1.00  0.00    -0.120 A  
HETATM   13  C   UNL     1      -9.134  14.670  67.453  1.00  0.00    -0.203 A  
HETATM   14  C   UNL     1      -8.668  15.890  66.932  1.00  0.00    -0.272 A  
HETATM   15  C   UNL     1      -7.583  16.556  67.542  1.00  0.00    -0.170 A  
BRANCH  13  16
HETATM   16  C   UNL     1     -10.280  13.944  66.786  1.00  0.00    -0.268 C  
BRANCH  16  17
HETATM   17  C   UNL     1     -10.056  12.435  66.682  1.00  0.00    -0.221 C  
HETATM   18  C   UNL     1     -11.056  11.702  65.808  1.00  0.00    -0.256 C  
HETATM   19  O   UNL     1     -10.324  10.557  65.343  1.00  0.00    -0.278 OA 
HETATM   20  C   UNL     1      -8.992  10.849  65.445  1.00  0.00    -0.193 C  
HETATM   21  N   UNL     1      -8.826  12.070  66.050  1.00  0.00    -0.035 NA 
HETATM   22  O   UNL     1      -8.086  10.116  65.093  1.00  0.00    -0.138 OA 
ENDBRANCH  16  17
ENDBRANCH  13  16
ENDBRANCH   5   6
ENDBRANCH   4   5
ENDBRANCH   2   4
TORSDOF 5
ENDMDL
MODEL      193
REMARK 921   NORMALIZED FREE ENERGY PREDICTED BY IDOCK:   -3.68 KCAL/MOL
REMARK 922        TOTAL FREE ENERGY PREDICTED BY IDOCK:   -5.19 KCAL/MOL
REMARK 923 INTER-LIGAND FREE ENERGY PREDICTED BY IDOCK:   -4.95 KCAL/MOL
REMARK 924 INTRA-LIGAND FREE ENERGY PREDICTED BY IDOCK:   -0.24 KCAL/MOL
REMARK 927      BINDING AFFINITY PREDICTED BY RF-SCORE:    0.00 PKD
ROOT
HETATM    1  C   UNL     1      -9.939   9.418  66.078  1.00  0.00    -0.281 C  
HETATM    2  N   UNL     1      -9.650   8.340  67.031  1.00  0.00    -0.175 NA 
HETATM    3  C   UNL     1      -9.064   8.907  68.247  1.00  0.00    -0.140 C  
ENDROOT
BRANCH   2   4
HETATM    4  C   UNL     1     -10.887   7.579  67.306  1.00  0.00    -0.227 C  
BRANCH   4   5
HETATM    5  C   UNL     1     -10.817   6.088  66.928  1.00  0.00    -0.396 C  
BRANCH   5   6
HETATM    6  C   UNL     1      -9.850   5.318  67.781  1.00  0.00    -0.187 A  
HETATM    7  C   UNL     1      -8.737   4.629  67.344  1.00  0.00    -0.104 A  
HETATM    8  N   UNL     1      -8.114   4.076  68.429  1.00  0.00    -0.076 NA 
HETATM    9  C   UNL     1      -8.797   4.392  69.580  1.00  0.00    -0.088 A  
HETATM   10  H   UNL     1      -7.266   3.512  68.390  1.00  0.00     0.000 HD 
HETATM   11  C   UNL     1      -8.524   4.059  70.911  1.00  0.00    -0.096 A  
HETATM   12  C   UNL     1      -9.407   4.523  71.892  1.00  0.00    -0.189 A  
HETATM   13  C   UNL     1     -10.532   5.289  71.562  1.00  0.00    -0.279 A  
HETATM   14  C   UNL     1     -10.764   5.626  70.216  1.00  0.00    -0.364 A  
HETATM   15  C   UNL     1      -9.893   5.167  69.206  1.00  0.00    -0.260 A  
BRANCH  13  16
HETATM   16  C   UNL     1     -11.479   5.760  72.642  1.00  0.00    -0.337 C  
BRANCH  16  17
HETATM   17  C   UNL     1     -11.606   7.282  72.707  1.00  0.00    -0.171 C  
HETATM   18  C   UNL     1     -10.295   8.036  72.596  1.00  0.00    -0.329 C  
HETATM   19  O   UNL     1     -10.678   9.303  72.038  1.00  0.00    -0.295 OA 
HETATM   20  C   UNL     1     -11.878   9.128  71.407  1.00  0.00    -0.345 C  
HETATM   21  N   UNL     1     -12.339   7.854  71.621  1.00  0.00    -0.306 NA 
HETATM   22  O   UNL     1     -12.472   9.990  70.784  1.00  0.00    -0.306 OA 
ENDBRANCH  16  17
ENDBRANCH  13  16
ENDBRANCH   5   6
ENDBRANCH   4   5
ENDBRANCH   2   4
TORSDOF 5
ENDMDL
MODEL      194
REMARK 921   NORMALIZED FREE ENERGY PREDICTED BY IDOCK:   -3.67 KCAL/MOL
REMARK 922        TOTAL FREE ENERGY PREDICTED BY IDOCK:   -5.18 KCAL/MOL
REMARK 923 INTER-LIGAND FREE ENERGY PREDICTED BY IDOCK:   -4.85 KCAL/MOL
REMARK 924 INTRA-LIGAND FREE ENERGY PREDICTED BY IDOCK:   -0.33 KCAL/MOL
REMARK 927      BINDING AFFINITY PREDICTED BY RF-SCORE:    0.00 PKD
ROOT
HETATM    1  C   UNL     1     -10.296  17.385  68.680  1.00  0.00    -0.364 C  
HETATM    2  N   UNL     1      -9.822  16.117  68.113  1.00  0.00    -0.225 NA 
HETATM    3  C   UNL     1      -8.365  16.153  67.984  1.00  0.00    -0.163 C  
ENDROOT
BRANCH   2   4
HETATM    4  C   UNL     1     -10.283  14.996  68.961  1.00  0.00    -0.242 C  
BRANCH   4   5
HETATM    5  C   UNL     1     -10.895  13.816  68.181  1.00  0.00    -0.261 C  
BRANCH   5   6
HETATM    6  C   UNL     1      -9.861  12.839  67.700  1.00  0.00    -0.214 A  
HETATM    7  C   UNL     1      -9.099  12.946  66.555  1.00  0.00    -0.132 A  
HETATM    8  N   UNL     1      -8.269  11.862  66.482  1.00  0.00    -0.362 NA 
HETATM    9  C   UNL     1      -8.468  11.038  67.565  1.00  0.00    -0.127 A  
HETATM   10  H   UNL     1      -7.599  11.689  65.733  1.00  0.00     0.000 HD 
HETATM   11  C   UNL     1      -7.841   9.837  67.912  1.00  0.00    -0.090 A  
HETATM   12  C   UNL     1      -8.254   9.203  69.090  1.00  0.00    -0.117 A  
HETATM   13  C   UNL     1      -9.264   9.743  69.896  1.00  0.00    -0.263 A  
HETATM   14  C   UNL     1      -9.857  10.965  69.531  1.00  0.00     0.033 A  
HETATM   15  C   UNL     1      -9.463  11.622  68.345  1.00  0.00    -0.193 A  
BRANCH  13  16
HETATM   16  C   UNL     1      -9.703   9.026  71.152  1.00  0.00    -0.369 C  
BRANCH  16  17
HETATM   17  C   UNL     1     -11.079   8.375  71.023  1.00  0.00    -0.258 C  
HETATM   18  C   UNL     1     -11.366   7.285  72.038  1.00  0.00    -0.260 C  
HETATM   19  O   UNL     1     -12.796   7.306  72.163  1.00  0.00    -0.202 OA 
HETATM   20  C   UNL     1     -13.228   8.536  71.752  1.00  0.00    -0.364 C  
HETATM   21  N   UNL     1     -12.172   9.265  71.267  1.00  0.00    -0.320 NA 
HETATM   22  O   UNL     1     -14.386   8.913  71.770  1.00  0.00    -0.352 OA 
ENDBRANCH  16  17
ENDBRANCH  13  16
ENDBRANCH   5   6
ENDBRANCH   4   5
ENDBRANCH   2   4
TORSDOF 5
ENDMDL
MODEL      195
REMARK 921   NORMALIZED FREE ENERGY PREDICTED BY IDOCK:   -3.65 KCAL/MOL
REMARK 922        TOTAL FREE ENERGY PREDICTED BY IDOCK:   -5.16 KCAL/MOL
REMARK 923 INTER-LIGAND FREE ENERGY PREDICTED BY IDOCK:   -4.89 KCAL/MOL
REMARK 924 INTRA-LIGAND FREE ENERGY PREDICTED BY IDOCK:   -0.27 KCAL/MOL
REMARK 927      BINDING AFFINITY PREDICTED BY RF-SCORE:    0.00 PKD
ROOT
HETATM    1  C   UNL     1      -9.940  10.505  64.493  1.00  0.00    -0.345 C  
HETATM    2  N   UNL     1      -9.161   9.912  65.586  1.00  0.00    -0.179 NA 
HETATM    3  C   UNL     1      -8.735  10.964  66.509  1.00  0.00    -0.163 C  
ENDROOT
BRANCH   2   4
HETATM    4  C   UNL     1      -9.967   8.869  66.257  1.00  0.00    -0.266 C  
BRANCH   4   5
HETATM    5  C   UNL     1      -9.240   7.524  66.447  1.00  0.00    -0.212 C  
BRANCH   5   6
HETATM    6  C   UNL     1      -8.529   7.431  67.767  1.00  0.00    -0.118 A  
HETATM    7  C   UNL     1      -7.164   7.415  67.966  1.00  0.00    -0.090 A  
HETATM    8  N   UNL     1      -6.921   7.335  69.310  1.00  0.00    -0.067 NA 
HETATM    9  C   UNL     1      -8.107   7.302  70.005  1.00  0.00    -0.130 A  
HETATM   10  H   UNL     1      -5.995   7.305  69.734  1.00  0.00     0.000 HD 
HETATM   11  C   UNL     1      -8.344   7.236  71.382  1.00  0.00    -0.110 A  
HETATM   12  C   UNL     1      -9.675   7.212  71.813  1.00  0.00    -0.168 A  
HETATM   13  C   UNL     1     -10.740   7.247  70.904  1.00  0.00    -0.251 A  
HETATM   14  C   UNL     1     -10.467   7.337  69.528  1.00  0.00    -0.238 A  
HETATM   15  C   UNL     1      -9.134   7.356  69.065  1.00  0.00    -0.133 A  
BRANCH  13  16
HETATM   16  C   UNL     1     -12.168   7.201  71.399  1.00  0.00    -0.399 C  
BRANCH  16  17
HETATM   17  C   UNL     1     -12.909   8.524  71.217  1.00  0.00    -0.181 C  
HETATM   18  C   UNL     1     -13.506   9.100  72.487  1.00  0.00    -0.428 C  
HETATM   19  O   UNL     1     -13.536  10.514  72.237  1.00  0.00    -0.340 OA 
HETATM   20  C   UNL     1     -12.616  10.780  71.261  1.00  0.00    -0.426 C  
HETATM   21  N   UNL     1     -12.077   9.608  70.794  1.00  0.00    -0.271 NA 
HETATM   22  O   UNL     1     -12.347  11.889  70.837  1.00  0.00    -0.373 OA 
ENDBRANCH  16  17
ENDBRANCH  13  16
ENDBRANCH   5   6
ENDBRANCH   4   5
ENDBRANCH   2   4
TORSDOF 5
ENDMDL
MODEL      196
REMARK 921   NORMALIZED FREE ENERGY PREDICTED BY IDOCK:   -3.65 KCAL/MOL
REMARK 922        TOTAL FREE ENERGY PREDICTED BY IDOCK:   -5.16 KCAL/MOL
REMARK 923 INTER-LIGAND FREE ENERGY PREDICTED BY IDOCK:   -4.89 KCAL/MOL
REMARK 924 INTRA-LIGAND FREE ENERGY PREDICTED BY IDOCK:   -0.26 KCAL/MOL
REMARK 927      BINDING AFFINITY PREDICTED BY RF-SCORE:    0.00 PKD
ROOT
HETATM    1  C   UNL     1     -10.104  18.528  67.520  1.00  0.00    -0.357 C  
HETATM    2  N   UNL     1      -8.927  18.246  66.690  1.00  0.00    -0.281 NA 
HETATM    3  C   UNL     1      -7.737  18.823  67.315  1.00  0.00    -0.231 C  
ENDROOT
BRANCH   2   4
HETATM    4  C   UNL     1      -8.804  16.786  66.490  1.00  0.00    -0.277 C  
BRANCH   4   5
HETATM    5  C   UNL     1      -9.106  15.942  67.742  1.00  0.00    -0.196 C  
BRANCH   5   6
HETATM    6  C   UNL     1     -10.186  14.923  67.509  1.00  0.00    -0.233 A  
HETATM    7  C   UNL     1     -11.546  15.154  67.500  1.00  0.00    -0.257 A  
HETATM    8  N   UNL     1     -12.185  13.974  67.238  1.00  0.00    -0.539 NA 
HETATM    9  C   UNL     1     -11.268  12.964  67.070  1.00  0.00    -0.288 A  
HETATM   10  H   UNL     1     -13.196  13.860  67.177  1.00  0.00     0.000 HD 
HETATM   11  C   UNL     1     -11.460  11.609  66.777  1.00  0.00    -0.299 A  
HETATM   12  C   UNL     1     -10.324  10.800  66.664  1.00  0.00    -0.294 A  
HETATM   13  C   UNL     1      -9.036  11.319  66.842  1.00  0.00    -0.163 A  
HETATM   14  C   UNL     1      -8.876  12.689  67.112  1.00  0.00    -0.204 A  
HETATM   15  C   UNL     1     -10.004  13.527  67.237  1.00  0.00    -0.236 A  
BRANCH  13  16
HETATM   16  C   UNL     1      -7.828  10.416  66.732  1.00  0.00    -0.117 C  
BRANCH  16  17
HETATM   17  C   UNL     1      -7.288   9.968  68.090  1.00  0.00    -0.083 C  
HETATM   18  C   UNL     1      -6.559  11.044  68.872  1.00  0.00    -0.058 C  
HETATM   19  O   UNL     1      -6.737  10.648  70.241  1.00  0.00    -0.185 OA 
HETATM   20  C   UNL     1      -7.832   9.832  70.294  1.00  0.00    -0.171 C  
HETATM   21  N   UNL     1      -8.300   9.593  69.027  1.00  0.00    -0.116 NA 
HETATM   22  O   UNL     1      -8.297   9.351  71.312  1.00  0.00    -0.308 OA 
ENDBRANCH  16  17
ENDBRANCH  13  16
ENDBRANCH   5   6
ENDBRANCH   4   5
ENDBRANCH   2   4
TORSDOF 5
ENDMDL
MODEL      197
REMARK 921   NORMALIZED FREE ENERGY PREDICTED BY IDOCK:   -3.64 KCAL/MOL
REMARK 922        TOTAL FREE ENERGY PREDICTED BY IDOCK:   -5.15 KCAL/MOL
REMARK 923 INTER-LIGAND FREE ENERGY PREDICTED BY IDOCK:   -4.82 KCAL/MOL
REMARK 924 INTRA-LIGAND FREE ENERGY PREDICTED BY IDOCK:   -0.32 KCAL/MOL
REMARK 927      BINDING AFFINITY PREDICTED BY RF-SCORE:    0.00 PKD
ROOT
HETATM    1  C   UNL     1     -12.586  12.152  63.674  1.00  0.00    -0.504 C  
HETATM    2  N   UNL     1     -12.725  12.437  65.106  1.00  0.00    -0.562 NA 
HETATM    3  C   UNL     1     -11.622  11.814  65.839  1.00  0.00    -0.130 C  
ENDROOT
BRANCH   2   4
HETATM    4  C   UNL     1     -12.782  13.900  65.314  1.00  0.00    -0.449 C  
BRANCH   4   5
HETATM    5  C   UNL     1     -11.844  14.712  64.400  1.00  0.00    -0.405 C  
BRANCH   5   6
HETATM    6  C   UNL     1     -10.970  15.665  65.164  1.00  0.00    -0.411 A  
HETATM    7  C   UNL     1     -11.142  17.029  65.274  1.00  0.00     0.097 A  
HETATM    8  N   UNL     1     -10.145  17.530  66.066  1.00  0.00    -0.515 NA 
HETATM    9  C   UNL     1      -9.316  16.516  66.485  1.00  0.00    -0.269 A  
HETATM   10  H   UNL     1     -10.033  18.514  66.309  1.00  0.00     0.000 HD 
HETATM   11  C   UNL     1      -8.187  16.556  67.309  1.00  0.00    -0.196 A  
HETATM   12  C   UNL     1      -7.527  15.350  67.569  1.00  0.00    -0.215 A  
HETATM   13  C   UNL     1      -7.972  14.140  67.021  1.00  0.00     0.008 A  
HETATM   14  C   UNL     1      -9.125  14.131  66.216  1.00  0.00    -0.072 A  
HETATM   15  C   UNL     1      -9.806  15.334  65.933  1.00  0.00    -0.385 A  
BRANCH  13  16
HETATM   16  C   UNL     1      -7.227  12.855  67.304  1.00  0.00    -0.075 C  
BRANCH  16  17
HETATM   17  C   UNL     1      -7.334  12.407  68.761  1.00  0.00    -0.076 C  
HETATM   18  C   UNL     1      -7.072  10.931  68.994  1.00  0.00    -0.095 C  
HETATM   19  O   UNL     1      -6.588  10.882  70.345  1.00  0.00    -0.273 OA 
HETATM   20  C   UNL     1      -6.110  12.124  70.657  1.00  0.00     0.193 C  
HETATM   21  N   UNL     1      -6.358  12.993  69.626  1.00  0.00    -0.113 NA 
HETATM   22  O   UNL     1      -5.582  12.425  71.712  1.00  0.00    -0.375 OA 
ENDBRANCH  16  17
ENDBRANCH  13  16
ENDBRANCH   5   6
ENDBRANCH   4   5
ENDBRANCH   2   4
TORSDOF 5
ENDMDL
MODEL      198
REMARK 921   NORMALIZED FREE ENERGY PREDICTED BY IDOCK:   -3.62 KCAL/MOL
REMARK 922        TOTAL FREE ENERGY PREDICTED BY IDOCK:   -5.12 KCAL/MOL
REMARK 923 INTER-LIGAND FREE ENERGY PREDICTED BY IDOCK:   -4.68 KCAL/MOL
REMARK 924 INTRA-LIGAND FREE ENERGY PREDICTED BY IDOCK:   -0.44 KCAL/MOL
REMARK 927      BINDING AFFINITY PREDICTED BY RF-SCORE:    0.00 PKD
ROOT
HETATM    1  C   UNL     1     -11.649  12.695  63.824  1.00  0.00    -0.476 C  
HETATM    2  N   UNL     1     -11.114  13.335  65.031  1.00  0.00    -0.300 NA 
HETATM    3  C   UNL     1     -10.801  14.735  64.743  1.00  0.00    -0.376 C  
ENDROOT
BRANCH   2   4
HETATM    4  C   UNL     1     -12.086  13.193  66.136  1.00  0.00    -0.417 C  
BRANCH   4   5
HETATM    5  C   UNL     1     -11.776  12.043  67.114  1.00  0.00    -0.344 C  
BRANCH   5   6
HETATM    6  C   UNL     1     -10.373  11.524  66.975  1.00  0.00    -0.254 A  
HETATM    7  C   UNL     1      -9.993  10.325  66.409  1.00  0.00    -0.229 A  
HETATM    8  N   UNL     1      -8.630  10.232  66.462  1.00  0.00    -0.130 NA 
HETATM    9  C   UNL     1      -8.100  11.355  67.053  1.00  0.00    -0.157 A  
HETATM   10  H   UNL     1      -8.085   9.444  66.115  1.00  0.00     0.000 HD 
HETATM   11  C   UNL     1      -6.767  11.699  67.304  1.00  0.00    -0.124 A  
HETATM   12  C   UNL     1      -6.519  12.926  67.931  1.00  0.00    -0.127 A  
HETATM   13  C   UNL     1      -7.563  13.782  68.303  1.00  0.00    -0.129 A  
HETATM   14  C   UNL     1      -8.890  13.417  68.015  1.00  0.00    -0.183 A  
HETATM   15  C   UNL     1      -9.169  12.183  67.388  1.00  0.00    -0.182 A  
BRANCH  13  16
HETATM   16  C   UNL     1      -7.265  15.092  68.997  1.00  0.00    -0.142 C  
BRANCH  16  17
HETATM   17  C   UNL     1      -7.309  16.294  68.055  1.00  0.00    -0.132 C  
HETATM   18  C   UNL     1      -6.780  17.587  68.647  1.00  0.00    -0.211 C  
HETATM   19  O   UNL     1      -6.316  18.319  67.502  1.00  0.00    -0.177 OA 
HETATM   20  C   UNL     1      -6.083  17.417  66.502  1.00  0.00    -0.215 C  
HETATM   21  N   UNL     1      -6.473  16.164  66.902  1.00  0.00    -0.297 NA 
HETATM   22  O   UNL     1      -5.636  17.691  65.402  1.00  0.00    -0.081 OA 
ENDBRANCH  16  17
ENDBRANCH  13  16
ENDBRANCH   5   6
ENDBRANCH   4   5
ENDBRANCH   2   4
TORSDOF 5
ENDMDL
MODEL      199
REMARK 921   NORMALIZED FREE ENERGY PREDICTED BY IDOCK:   -3.61 KCAL/MOL
REMARK 922        TOTAL FREE ENERGY PREDICTED BY IDOCK:   -5.10 KCAL/MOL
REMARK 923 INTER-LIGAND FREE ENERGY PREDICTED BY IDOCK:   -4.56 KCAL/MOL
REMARK 924 INTRA-LIGAND FREE ENERGY PREDICTED BY IDOCK:   -0.54 KCAL/MOL
REMARK 927      BINDING AFFINITY PREDICTED BY RF-SCORE:    0.00 PKD
ROOT
HETATM    1  C   UNL     1     -12.433  13.443  63.876  1.00  0.00    -0.243 C  
HETATM    2  N   UNL     1     -11.189  12.992  64.510  1.00  0.00    -0.323 NA 
HETATM    3  C   UNL     1     -10.493  12.064  63.616  1.00  0.00    -0.454 C  
ENDROOT
BRANCH   2   4
HETATM    4  C   UNL     1     -10.359  14.165  64.857  1.00  0.00    -0.408 C  
BRANCH   4   5
HETATM    5  C   UNL     1     -10.263  14.454  66.367  1.00  0.00    -0.294 C  
BRANCH   5   6
HETATM    6  C   UNL     1      -8.939  14.052  66.952  1.00  0.00    -0.243 A  
HETATM    7  C   UNL     1      -7.905  14.896  67.304  1.00  0.00    -0.206 A  
HETATM    8  N   UNL     1      -6.883  14.143  67.812  1.00  0.00    -0.164 NA 
HETATM    9  C   UNL     1      -7.225  12.811  67.804  1.00  0.00    -0.132 A  
HETATM   10  H   UNL     1      -5.995  14.515  68.147  1.00  0.00     0.000 HD 
HETATM   11  C   UNL     1      -6.505  11.692  68.236  1.00  0.00    -0.051 A  
HETATM   12  C   UNL     1      -7.111  10.437  68.103  1.00  0.00    -0.082 A  
HETATM   13  C   UNL     1      -8.390  10.297  67.552  1.00  0.00    -0.114 A  
HETATM   14  C   UNL     1      -9.097  11.444  67.150  1.00  0.00    -0.164 A  
HETATM   15  C   UNL     1      -8.507  12.721  67.267  1.00  0.00    -0.194 A  
BRANCH  13  16
HETATM   16  C   UNL     1      -9.011   8.927  67.404  1.00  0.00    -0.143 C  
BRANCH  16  17
HETATM   17  C   UNL     1      -9.448   8.317  68.736  1.00  0.00    -0.148 C  
HETATM   18  C   UNL     1     -10.323   9.215  69.590  1.00  0.00    -0.219 C  
HETATM   19  O   UNL     1     -11.098   8.290  70.369  1.00  0.00    -0.249 OA 
HETATM   20  C   UNL     1     -11.103   7.095  69.706  1.00  0.00    -0.210 C  
HETATM   21  N   UNL     1     -10.287   7.167  68.605  1.00  0.00    -0.183 NA 
HETATM   22  O   UNL     1     -11.706   6.099  70.063  1.00  0.00    -0.336 OA 
ENDBRANCH  16  17
ENDBRANCH  13  16
ENDBRANCH   5   6
ENDBRANCH   4   5
ENDBRANCH   2   4
TORSDOF 5
ENDMDL
MODEL      200
REMARK 921   NORMALIZED FREE ENERGY PREDICTED BY IDOCK:   -3.60 KCAL/MOL
REMARK 922        TOTAL FREE ENERGY PREDICTED BY IDOCK:   -5.09 KCAL/MOL
REMARK 923 INTER-LIGAND FREE ENERGY PREDICTED BY IDOCK:   -4.79 KCAL/MOL
REMARK 924 INTRA-LIGAND FREE ENERGY PREDICTED BY IDOCK:   -0.29 KCAL/MOL
REMARK 927      BINDING AFFINITY PREDICTED BY RF-SCORE:    0.00 PKD
ROOT
HETATM    1  C   UNL     1     -11.689  14.178  66.768  1.00  0.00    -0.410 C  
HETATM    2  N   UNL     1     -11.978  12.971  65.986  1.00  0.00    -0.421 NA 
HETATM    3  C   UNL     1     -11.517  13.158  64.610  1.00  0.00    -0.333 C  
ENDROOT
BRANCH   2   4
HETATM    4  C   UNL     1     -11.349  11.800  66.635  1.00  0.00    -0.316 C  
BRANCH   4   5
HETATM    5  C   UNL     1     -10.633  12.114  67.962  1.00  0.00    -0.232 C  
BRANCH   5   6
HETATM    6  C   UNL     1     -11.275  11.440  69.141  1.00  0.00    -0.335 A  
HETATM    7  C   UNL     1     -12.562  11.634  69.598  1.00  0.00     0.155 A  
HETATM    8  N   UNL     1     -12.765  10.825  70.682  1.00  0.00    -0.343 NA 
HETATM    9  C   UNL     1     -11.630  10.095  70.949  1.00  0.00    -0.372 A  
HETATM   10  H   UNL     1     -13.632  10.771  71.216  1.00  0.00     0.000 HD 
HETATM   11  C   UNL     1     -11.383   9.142  71.943  1.00  0.00    -0.416 A  
HETATM   12  C   UNL     1     -10.114   8.553  71.978  1.00  0.00    -0.386 A  
HETATM   13  C   UNL     1      -9.119   8.903  71.058  1.00  0.00    -0.303 A  
HETATM   14  C   UNL     1      -9.407   9.847  70.057  1.00  0.00    -0.232 A  
HETATM   15  C   UNL     1     -10.677  10.462  70.001  1.00  0.00    -0.321 A  
BRANCH  13  16
HETATM   16  C   UNL     1      -7.751   8.263  71.133  1.00  0.00    -0.097 C  
BRANCH  16  17
HETATM   17  C   UNL     1      -7.806   6.741  71.262  1.00  0.00    -0.101 C  
HETATM   18  C   UNL     1      -6.626   6.007  70.655  1.00  0.00    -0.048 C  
HETATM   19  O   UNL     1      -6.549   4.795  71.422  1.00  0.00    -0.028 OA 
HETATM   20  C   UNL     1      -7.182   5.020  72.612  1.00  0.00    -0.088 C  
HETATM   21  N   UNL     1      -7.754   6.267  72.610  1.00  0.00    -0.101 NA 
HETATM   22  O   UNL     1      -7.265   4.216  73.523  1.00  0.00    -0.066 OA 
ENDBRANCH  16  17
ENDBRANCH  13  16
ENDBRANCH   5   6
ENDBRANCH   4   5
ENDBRANCH   2   4
TORSDOF 5
ENDMDL
MODEL      201
REMARK 921   NORMALIZED FREE ENERGY PREDICTED BY IDOCK:   -3.60 KCAL/MOL
REMARK 922        TOTAL FREE ENERGY PREDICTED BY IDOCK:   -5.09 KCAL/MOL
REMARK 923 INTER-LIGAND FREE ENERGY PREDICTED BY IDOCK:   -4.67 KCAL/MOL
REMARK 924 INTRA-LIGAND FREE ENERGY PREDICTED BY IDOCK:   -0.41 KCAL/MOL
REMARK 927      BINDING AFFINITY PREDICTED BY RF-SCORE:    0.00 PKD
ROOT
HETATM    1  C   UNL     1     -10.649   6.611  72.419  1.00  0.00    -0.214 C  
HETATM    2  N   UNL     1      -9.659   6.547  71.338  1.00  0.00    -0.165 NA 
HETATM    3  C   UNL     1     -10.063   5.530  70.366  1.00  0.00    -0.230 C  
ENDROOT
BRANCH   2   4
HETATM    4  C   UNL     1      -9.513   7.884  70.724  1.00  0.00    -0.158 C  
BRANCH   4   5
HETATM    5  C   UNL     1     -10.773   8.396  70.001  1.00  0.00    -0.236 C  
BRANCH   5   6
HETATM    6  C   UNL     1     -10.530   8.691  68.548  1.00  0.00    -0.209 A  
HETATM    7  C   UNL     1     -10.467   7.771  67.522  1.00  0.00    -0.268 A  
HETATM    8  N   UNL     1     -10.243   8.441  66.351  1.00  0.00    -0.433 NA 
HETATM    9  C   UNL     1     -10.160   9.793  66.586  1.00  0.00    -0.237 A  
HETATM   10  H   UNL     1     -10.151   8.001  65.436  1.00  0.00     0.000 HD 
HETATM   11  C   UNL     1      -9.956  10.853  65.695  1.00  0.00    -0.305 A  
HETATM   12  C   UNL     1      -9.913  12.148  66.224  1.00  0.00    -0.249 A  
HETATM   13  C   UNL     1     -10.063  12.384  67.596  1.00  0.00    -0.199 A  
HETATM   14  C   UNL     1     -10.290  11.299  68.461  1.00  0.00    -0.217 A  
HETATM   15  C   UNL     1     -10.332   9.982  67.955  1.00  0.00    -0.238 A  
BRANCH  13  16
HETATM   16  C   UNL     1      -9.993  13.793  68.141  1.00  0.00    -0.242 C  
BRANCH  16  17
HETATM   17  C   UNL     1      -8.622  14.442  67.952  1.00  0.00    -0.165 C  
HETATM   18  C   UNL     1      -8.603  15.624  67.001  1.00  0.00    -0.224 C  
HETATM   19  O   UNL     1      -7.499  16.416  67.466  1.00  0.00    -0.126 OA 
HETATM   20  C   UNL     1      -7.272  16.079  68.772  1.00  0.00    -0.157 C  
HETATM   21  N   UNL     1      -8.091  15.042  69.137  1.00  0.00    -0.188 NA 
HETATM   22  O   UNL     1      -6.435  16.594  69.491  1.00  0.00    -0.214 OA 
ENDBRANCH  16  17
ENDBRANCH  13  16
ENDBRANCH   5   6
ENDBRANCH   4   5
ENDBRANCH   2   4
TORSDOF 5
ENDMDL
MODEL      202
REMARK 921   NORMALIZED FREE ENERGY PREDICTED BY IDOCK:   -3.55 KCAL/MOL
REMARK 922        TOTAL FREE ENERGY PREDICTED BY IDOCK:   -5.03 KCAL/MOL
REMARK 923 INTER-LIGAND FREE ENERGY PREDICTED BY IDOCK:   -5.06 KCAL/MOL
REMARK 924 INTRA-LIGAND FREE ENERGY PREDICTED BY IDOCK:    0.03 KCAL/MOL
REMARK 927      BINDING AFFINITY PREDICTED BY RF-SCORE:    0.00 PKD
ROOT
HETATM    1  C   UNL     1     -12.728   9.736  71.745  1.00  0.00    -0.426 C  
HETATM    2  N   UNL     1     -11.497   9.032  71.368  1.00  0.00    -0.302 NA 
HETATM    3  C   UNL     1     -11.812   7.644  71.027  1.00  0.00    -0.285 C  
ENDROOT
BRANCH   2   4
HETATM    4  C   UNL     1     -10.840   9.748  70.254  1.00  0.00    -0.301 C  
BRANCH   4   5
HETATM    5  C   UNL     1     -11.479  11.106  69.904  1.00  0.00    -0.386 C  
BRANCH   5   6
HETATM    6  C   UNL     1     -11.399  11.424  68.438  1.00  0.00    -0.346 A  
HETATM    7  C   UNL     1     -12.023  12.469  67.789  1.00  0.00    -0.223 A  
HETATM    8  N   UNL     1     -11.688  12.420  66.464  1.00  0.00    -0.487 NA 
HETATM    9  C   UNL     1     -10.848  11.357  66.226  1.00  0.00    -0.263 A  
HETATM   10  H   UNL     1     -12.014  13.076  65.755  1.00  0.00     0.000 HD 
HETATM   11  C   UNL     1     -10.248  10.931  65.036  1.00  0.00    -0.367 A  
HETATM   12  C   UNL     1      -9.429   9.797  65.091  1.00  0.00    -0.338 A  
HETATM   13  C   UNL     1      -9.217   9.104  66.289  1.00  0.00    -0.246 A  
HETATM   14  C   UNL     1      -9.816   9.573  67.472  1.00  0.00    -0.213 A  
HETATM   15  C   UNL     1     -10.651  10.711  67.444  1.00  0.00    -0.304 A  
BRANCH  13  16
HETATM   16  C   UNL     1      -8.343   7.871  66.313  1.00  0.00    -0.126 C  
BRANCH  16  17
HETATM   17  C   UNL     1      -8.069   7.356  67.726  1.00  0.00    -0.119 C  
HETATM   18  C   UNL     1      -8.737   6.037  68.063  1.00  0.00    -0.112 C  
HETATM   19  O   UNL     1      -7.876   5.466  69.062  1.00  0.00    -0.087 OA 
HETATM   20  C   UNL     1      -6.647   6.049  68.928  1.00  0.00    -0.051 C  
HETATM   21  N   UNL     1      -6.698   7.036  67.977  1.00  0.00    -0.062 NA 
HETATM   22  O   UNL     1      -5.663   5.765  69.587  1.00  0.00    -0.014 OA 
ENDBRANCH  16  17
ENDBRANCH  13  16
ENDBRANCH   5   6
ENDBRANCH   4   5
ENDBRANCH   2   4
TORSDOF 5
ENDMDL
MODEL      203
REMARK 921   NORMALIZED FREE ENERGY PREDICTED BY IDOCK:   -3.54 KCAL/MOL
REMARK 922        TOTAL FREE ENERGY PREDICTED BY IDOCK:   -5.01 KCAL/MOL
REMARK 923 INTER-LIGAND FREE ENERGY PREDICTED BY IDOCK:   -4.70 KCAL/MOL
REMARK 924 INTRA-LIGAND FREE ENERGY PREDICTED BY IDOCK:   -0.31 KCAL/MOL
REMARK 927      BINDING AFFINITY PREDICTED BY RF-SCORE:    0.00 PKD
ROOT
HETATM    1  C   UNL     1      -8.496  13.542  67.221  1.00  0.00    -0.193 C  
HETATM    2  N   UNL     1      -7.516  12.655  67.858  1.00  0.00    -0.110 NA 
HETATM    3  C   UNL     1      -6.554  13.454  68.619  1.00  0.00    -0.091 C  
ENDROOT
BRANCH   2   4
HETATM    4  C   UNL     1      -8.220  11.668  68.704  1.00  0.00    -0.110 C  
BRANCH   4   5
HETATM    5  C   UNL     1      -9.527  11.125  68.098  1.00  0.00    -0.180 C  
BRANCH   5   6
HETATM    6  C   UNL     1     -10.632  11.009  69.109  1.00  0.00    -0.253 A  
HETATM    7  C   UNL     1     -11.742  11.821  69.211  1.00  0.00    -0.335 A  
HETATM    8  N   UNL     1     -12.512  11.377  70.250  1.00  0.00    -0.262 NA 
HETATM    9  C   UNL     1     -11.929  10.279  70.838  1.00  0.00    -0.375 A  
HETATM   10  H   UNL     1     -13.391  11.799  70.547  1.00  0.00     0.000 HD 
HETATM   11  C   UNL     1     -12.361   9.495  71.913  1.00  0.00    -0.450 A  
HETATM   12  C   UNL     1     -11.550   8.424  72.304  1.00  0.00    -0.453 A  
HETATM   13  C   UNL     1     -10.344   8.142  71.651  1.00  0.00    -0.284 A  
HETATM   14  C   UNL     1      -9.950   8.935  70.559  1.00  0.00    -0.243 A  
HETATM   15  C   UNL     1     -10.746  10.026  70.147  1.00  0.00    -0.361 A  
BRANCH  13  16
HETATM   16  C   UNL     1      -9.479   6.989  72.109  1.00  0.00    -0.150 C  
BRANCH  16  17
HETATM   17  C   UNL     1      -9.491   5.808  71.139  1.00  0.00    -0.158 C  
HETATM   18  C   UNL     1     -10.844   5.502  70.525  1.00  0.00    -0.196 C  
HETATM   19  O   UNL     1     -10.515   4.888  69.269  1.00  0.00    -0.145 OA 
HETATM   20  C   UNL     1      -9.245   5.274  68.941  1.00  0.00    -0.118 C  
HETATM   21  N   UNL     1      -8.701   6.009  69.964  1.00  0.00    -0.134 NA 
HETATM   22  O   UNL     1      -8.666   4.972  67.913  1.00  0.00    -0.103 OA 
ENDBRANCH  16  17
ENDBRANCH  13  16
ENDBRANCH   5   6
ENDBRANCH   4   5
ENDBRANCH   2   4
TORSDOF 5
ENDMDL
MODEL      204
REMARK 921   NORMALIZED FREE ENERGY PREDICTED BY IDOCK:   -3.53 KCAL/MOL
REMARK 922        TOTAL FREE ENERGY PREDICTED BY IDOCK:   -5.00 KCAL/MOL
REMARK 923 INTER-LIGAND FREE ENERGY PREDICTED BY IDOCK:   -4.79 KCAL/MOL
REMARK 924 INTRA-LIGAND FREE ENERGY PREDICTED BY IDOCK:   -0.21 KCAL/MOL
REMARK 927      BINDING AFFINITY PREDICTED BY RF-SCORE:    0.00 PKD
ROOT
HETATM    1  C   UNL     1     -10.550   8.710  71.824  1.00  0.00    -0.325 C  
HETATM    2  N   UNL     1     -10.421   7.478  71.036  1.00  0.00    -0.214 NA 
HETATM    3  C   UNL     1     -10.578   6.318  71.914  1.00  0.00    -0.219 C  
ENDROOT
BRANCH   2   4
HETATM    4  C   UNL     1     -11.411   7.490  69.938  1.00  0.00    -0.037 C  
BRANCH   4   5
HETATM    5  C   UNL     1     -11.139   6.462  68.823  1.00  0.00    -0.404 C  
BRANCH   5   6
HETATM    6  C   UNL     1     -10.028   6.883  67.903  1.00  0.00    -0.174 A  
HETATM    7  C   UNL     1      -8.923   6.136  67.553  1.00  0.00    -0.111 A  
HETATM    8  N   UNL     1      -8.159   6.869  66.687  1.00  0.00    -0.108 NA 
HETATM    9  C   UNL     1      -8.744   8.091  66.455  1.00  0.00    -0.146 A  
HETATM   10  H   UNL     1      -7.282   6.554  66.273  1.00  0.00     0.000 HD 
HETATM   11  C   UNL     1      -8.332   9.149  65.638  1.00  0.00    -0.131 A  
HETATM   12  C   UNL     1      -9.137  10.293  65.598  1.00  0.00    -0.208 A  
HETATM   13  C   UNL     1     -10.314  10.386  66.350  1.00  0.00    -0.278 A  
HETATM   14  C   UNL     1     -10.714   9.295  67.143  1.00  0.00    -0.222 A  
HETATM   15  C   UNL     1      -9.917   8.132  67.207  1.00  0.00    -0.283 A  
BRANCH  13  16
HETATM   16  C   UNL     1     -11.155  11.642  66.301  1.00  0.00    -0.345 C  
BRANCH  16  17
HETATM   17  C   UNL     1     -10.756  12.673  67.355  1.00  0.00    -0.229 C  
HETATM   18  C   UNL     1      -9.340  13.204  67.224  1.00  0.00    -0.225 C  
HETATM   19  O   UNL     1      -9.413  14.513  67.810  1.00  0.00    -0.203 OA 
HETATM   20  C   UNL     1     -10.721  14.910  67.771  1.00  0.00    -0.271 C  
HETATM   21  N   UNL     1     -11.505  13.890  67.297  1.00  0.00    -0.326 NA 
HETATM   22  O   UNL     1     -11.134  15.992  68.145  1.00  0.00    -0.332 OA 
ENDBRANCH  16  17
ENDBRANCH  13  16
ENDBRANCH   5   6
ENDBRANCH   4   5
ENDBRANCH   2   4
TORSDOF 5
ENDMDL
MODEL      205
REMARK 921   NORMALIZED FREE ENERGY PREDICTED BY IDOCK:   -3.52 KCAL/MOL
REMARK 922        TOTAL FREE ENERGY PREDICTED BY IDOCK:   -4.99 KCAL/MOL
REMARK 923 INTER-LIGAND FREE ENERGY PREDICTED BY IDOCK:   -4.41 KCAL/MOL
REMARK 924 INTRA-LIGAND FREE ENERGY PREDICTED BY IDOCK:   -0.58 KCAL/MOL
REMARK 927      BINDING AFFINITY PREDICTED BY RF-SCORE:    0.00 PKD
ROOT
HETATM    1  C   UNL     1     -10.754   6.952  67.699  1.00  0.00    -0.274 C  
HETATM    2  N   UNL     1      -9.673   7.690  67.035  1.00  0.00    -0.179 NA 
HETATM    3  C   UNL     1      -9.456   8.963  67.723  1.00  0.00    -0.141 C  
ENDROOT
BRANCH   2   4
HETATM    4  C   UNL     1      -8.454   6.854  67.001  1.00  0.00    -0.121 C  
BRANCH   4   5
HETATM    5  C   UNL     1      -7.434   7.168  68.113  1.00  0.00    -0.099 C  
BRANCH   5   6
HETATM    6  C   UNL     1      -7.497   6.191  69.251  1.00  0.00    -0.089 A  
HETATM    7  C   UNL     1      -6.787   5.014  69.364  1.00  0.00    -0.053 A  
HETATM    8  N   UNL     1      -7.115   4.420  70.552  1.00  0.00    -0.040 NA 
HETATM    9  C   UNL     1      -8.032   5.189  71.230  1.00  0.00    -0.108 A  
HETATM   10  H   UNL     1      -6.736   3.535  70.886  1.00  0.00     0.000 HD 
HETATM   11  C   UNL     1      -8.635   4.986  72.476  1.00  0.00    -0.120 A  
HETATM   12  C   UNL     1      -9.546   5.949  72.922  1.00  0.00    -0.161 A  
HETATM   13  C   UNL     1      -9.855   7.077  72.153  1.00  0.00    -0.168 A  
HETATM   14  C   UNL     1      -9.213   7.264  70.915  1.00  0.00    -0.155 A  
HETATM   15  C   UNL     1      -8.294   6.305  70.438  1.00  0.00    -0.126 A  
BRANCH  13  16
HETATM   16  C   UNL     1     -10.859   8.091  72.653  1.00  0.00    -0.436 C  
BRANCH  16  17
HETATM   17  C   UNL     1     -11.684   8.723  71.532  1.00  0.00    -0.309 C  
HETATM   18  C   UNL     1     -13.094   9.120  71.926  1.00  0.00    -0.411 C  
HETATM   19  O   UNL     1     -13.404  10.201  71.033  1.00  0.00    -0.387 OA 
HETATM   20  C   UNL     1     -12.220  10.725  70.594  1.00  0.00    -0.379 C  
HETATM   21  N   UNL     1     -11.173   9.974  71.064  1.00  0.00    -0.346 NA 
HETATM   22  O   UNL     1     -12.112  11.688  69.856  1.00  0.00    -0.307 OA 
ENDBRANCH  16  17
ENDBRANCH  13  16
ENDBRANCH   5   6
ENDBRANCH   4   5
ENDBRANCH   2   4
TORSDOF 5
ENDMDL
MODEL      206
REMARK 921   NORMALIZED FREE ENERGY PREDICTED BY IDOCK:   -3.52 KCAL/MOL
REMARK 922        TOTAL FREE ENERGY PREDICTED BY IDOCK:   -4.99 KCAL/MOL
REMARK 923 INTER-LIGAND FREE ENERGY PREDICTED BY IDOCK:   -5.39 KCAL/MOL
REMARK 924 INTRA-LIGAND FREE ENERGY PREDICTED BY IDOCK:    0.40 KCAL/MOL
REMARK 927      BINDING AFFINITY PREDICTED BY RF-SCORE:    0.00 PKD
ROOT
HETATM    1  C   UNL     1     -10.220  15.227  70.516  1.00  0.00     0.142 C  
HETATM    2  N   UNL     1     -11.626  14.807  70.466  1.00  0.00    -0.280 NA 
HETATM    3  C   UNL     1     -12.418  15.829  69.781  1.00  0.00    -0.026 C  
ENDROOT
BRANCH   2   4
HETATM    4  C   UNL     1     -11.723  13.486  69.808  1.00  0.00    -0.295 C  
BRANCH   4   5
HETATM    5  C   UNL     1     -12.129  12.334  70.745  1.00  0.00    -0.259 C  
BRANCH   5   6
HETATM    6  C   UNL     1     -11.552  11.012  70.324  1.00  0.00    -0.414 A  
HETATM    7  C   UNL     1     -11.659   9.815  71.002  1.00  0.00    -0.376 A  
HETATM    8  N   UNL     1     -11.011   8.849  70.283  1.00  0.00    -0.241 NA 
HETATM    9  C   UNL     1     -10.477   9.388  69.136  1.00  0.00    -0.217 A  
HETATM   10  H   UNL     1     -10.934   7.871  70.558  1.00  0.00     0.000 HD 
HETATM   11  C   UNL     1      -9.750   8.781  68.107  1.00  0.00    -0.177 A  
HETATM   12  C   UNL     1      -9.324   9.589  67.047  1.00  0.00    -0.183 A  
HETATM   13  C   UNL     1      -9.606  10.960  67.012  1.00  0.00    -0.197 A  
HETATM   14  C   UNL     1     -10.359  11.535  68.051  1.00  0.00    -0.208 A  
HETATM   15  C   UNL     1     -10.797  10.745  69.135  1.00  0.00    -0.281 A  
BRANCH  13  16
HETATM   16  C   UNL     1      -9.116  11.811  65.863  1.00  0.00    -0.128 C  
BRANCH  16  17
HETATM   17  C   UNL     1     -10.246  12.513  65.111  1.00  0.00    -0.279 C  
HETATM   18  C   UNL     1     -10.124  12.476  63.599  1.00  0.00    -0.179 C  
HETATM   19  O   UNL     1     -11.484  12.565  63.147  1.00  0.00    -0.414 OA 
HETATM   20  C   UNL     1     -12.287  12.154  64.174  1.00  0.00    -0.409 C  
HETATM   21  N   UNL     1     -11.530  11.912  65.292  1.00  0.00    -0.294 NA 
HETATM   22  O   UNL     1     -13.500  12.060  64.119  1.00  0.00    -0.672 OA 
ENDBRANCH  16  17
ENDBRANCH  13  16
ENDBRANCH   5   6
ENDBRANCH   4   5
ENDBRANCH   2   4
TORSDOF 5
ENDMDL
MODEL      207
REMARK 921   NORMALIZED FREE ENERGY PREDICTED BY IDOCK:   -3.52 KCAL/MOL
REMARK 922        TOTAL FREE ENERGY PREDICTED BY IDOCK:   -4.99 KCAL/MOL
REMARK 923 INTER-LIGAND FREE ENERGY PREDICTED BY IDOCK:   -4.79 KCAL/MOL
REMARK 924 INTRA-LIGAND FREE ENERGY PREDICTED BY IDOCK:   -0.20 KCAL/MOL
REMARK 927      BINDING AFFINITY PREDICTED BY RF-SCORE:    0.00 PKD
ROOT
HETATM    1  C   UNL     1     -11.731  15.496  64.223  1.00  0.00    -0.190 C  
HETATM    2  N   UNL     1     -12.697  14.395  64.321  1.00  0.00    -0.630 NA 
HETATM    3  C   UNL     1     -12.335  13.341  63.372  1.00  0.00    -0.324 C  
ENDROOT
BRANCH   2   4
HETATM    4  C   UNL     1     -12.744  13.904  65.715  1.00  0.00    -0.461 C  
BRANCH   4   5
HETATM    5  C   UNL     1     -12.137  12.502  65.918  1.00  0.00    -0.420 C  
BRANCH   5   6
HETATM    6  C   UNL     1     -10.879  12.528  66.739  1.00  0.00    -0.281 A  
HETATM    7  C   UNL     1     -10.002  13.585  66.867  1.00  0.00    -0.256 A  
HETATM    8  N   UNL     1      -8.993  13.214  67.712  1.00  0.00    -0.183 NA 
HETATM    9  C   UNL     1      -9.190  11.925  68.149  1.00  0.00    -0.187 A  
HETATM   10  H   UNL     1      -8.208  13.807  67.979  1.00  0.00     0.000 HD 
HETATM   11  C   UNL     1      -8.430  11.143  69.025  1.00  0.00    -0.044 A  
HETATM   12  C   UNL     1      -8.876   9.844  69.291  1.00  0.00    -0.178 A  
HETATM   13  C   UNL     1     -10.039   9.334  68.701  1.00  0.00    -0.207 A  
HETATM   14  C   UNL     1     -10.793  10.154  67.844  1.00  0.00    -0.336 A  
HETATM   15  C   UNL     1     -10.364  11.467  67.553  1.00  0.00    -0.224 A  
BRANCH  13  16
HETATM   16  C   UNL     1     -10.485   7.919  68.994  1.00  0.00    -0.210 C  
BRANCH  16  17
HETATM   17  C   UNL     1      -9.617   6.862  68.311  1.00  0.00    -0.128 C  
HETATM   18  C   UNL     1      -9.622   6.917  66.795  1.00  0.00    -0.168 C  
HETATM   19  O   UNL     1      -8.347   6.362  66.433  1.00  0.00    -0.111 OA 
HETATM   20  C   UNL     1      -7.520   6.489  67.513  1.00  0.00    -0.096 C  
HETATM   21  N   UNL     1      -8.219   6.991  68.582  1.00  0.00    -0.121 NA 
HETATM   22  O   UNL     1      -6.347   6.163  67.538  1.00  0.00    -0.034 OA 
ENDBRANCH  16  17
ENDBRANCH  13  16
ENDBRANCH   5   6
ENDBRANCH   4   5
ENDBRANCH   2   4
TORSDOF 5
ENDMDL
MODEL      208
REMARK 921   NORMALIZED FREE ENERGY PREDICTED BY IDOCK:   -3.45 KCAL/MOL
REMARK 922        TOTAL FREE ENERGY PREDICTED BY IDOCK:   -4.90 KCAL/MOL
REMARK 923 INTER-LIGAND FREE ENERGY PREDICTED BY IDOCK:   -5.02 KCAL/MOL
REMARK 924 INTRA-LIGAND FREE ENERGY PREDICTED BY IDOCK:    0.12 KCAL/MOL
REMARK 927      BINDING AFFINITY PREDICTED BY RF-SCORE:    0.00 PKD
ROOT
HETATM    1  C   UNL     1      -7.524   5.504  69.487  1.00  0.00    -0.070 C  
HETATM    2  N   UNL     1      -8.217   5.620  68.199  1.00  0.00    -0.097 NA 
HETATM    3  C   UNL     1      -9.469   4.864  68.247  1.00  0.00    -0.138 C  
ENDROOT
BRANCH   2   4
HETATM    4  C   UNL     1      -8.435   7.048  67.883  1.00  0.00    -0.124 C  
BRANCH   4   5
HETATM    5  C   UNL     1      -7.324   7.690  67.030  1.00  0.00    -0.090 C  
BRANCH   5   6
HETATM    6  C   UNL     1      -7.827   8.199  65.709  1.00  0.00    -0.096 A  
HETATM    7  C   UNL     1      -7.430   7.773  64.459  1.00  0.00    -0.097 A  
HETATM    8  N   UNL     1      -8.133   8.473  63.517  1.00  0.00    -0.178 NA 
HETATM    9  C   UNL     1      -8.993   9.356  64.126  1.00  0.00    -0.144 A  
HETATM   10  H   UNL     1      -8.033   8.357  62.510  1.00  0.00     0.000 HD 
HETATM   11  C   UNL     1      -9.906  10.257  63.568  1.00  0.00    -0.156 A  
HETATM   12  C   UNL     1     -10.661  11.045  64.444  1.00  0.00    -0.395 A  
HETATM   13  C   UNL     1     -10.510  10.947  65.832  1.00  0.00    -0.285 A  
HETATM   14  C   UNL     1      -9.600  10.014  66.362  1.00  0.00    -0.248 A  
HETATM   15  C   UNL     1      -8.822   9.210  65.502  1.00  0.00    -0.229 A  
BRANCH  13  16
HETATM   16  C   UNL     1     -11.326  11.826  66.753  1.00  0.00    -0.385 C  
BRANCH  16  17
HETATM   17  C   UNL     1     -11.232  13.311  66.405  1.00  0.00    -0.302 C  
HETATM   18  C   UNL     1      -9.887  13.753  65.860  1.00  0.00    -0.260 C  
HETATM   19  O   UNL     1     -10.210  14.887  65.040  1.00  0.00    -0.380 OA 
HETATM   20  C   UNL     1     -11.530  14.788  64.701  1.00  0.00    -0.381 C  
HETATM   21  N   UNL     1     -12.100  13.719  65.344  1.00  0.00    -0.382 NA 
HETATM   22  O   UNL     1     -12.125  15.561  63.972  1.00  0.00    -0.583 OA 
ENDBRANCH  16  17
ENDBRANCH  13  16
ENDBRANCH   5   6
ENDBRANCH   4   5
ENDBRANCH   2   4
TORSDOF 5
ENDMDL
MODEL      209
REMARK 921   NORMALIZED FREE ENERGY PREDICTED BY IDOCK:   -3.45 KCAL/MOL
REMARK 922        TOTAL FREE ENERGY PREDICTED BY IDOCK:   -4.89 KCAL/MOL
REMARK 923 INTER-LIGAND FREE ENERGY PREDICTED BY IDOCK:   -4.86 KCAL/MOL
REMARK 924 INTRA-LIGAND FREE ENERGY PREDICTED BY IDOCK:   -0.04 KCAL/MOL
REMARK 927      BINDING AFFINITY PREDICTED BY RF-SCORE:    0.00 PKD
ROOT
HETATM    1  C   UNL     1     -12.758  14.405  71.297  1.00  0.00    -0.344 C  
HETATM    2  N   UNL     1     -11.529  14.575  70.514  1.00  0.00    -0.230 NA 
HETATM    3  C   UNL     1     -11.357  13.430  69.619  1.00  0.00    -0.137 C  
ENDROOT
BRANCH   2   4
HETATM    4  C   UNL     1     -11.584  15.858  69.781  1.00  0.00    -0.338 C  
BRANCH   4   5
HETATM    5  C   UNL     1     -10.966  15.814  68.371  1.00  0.00    -0.323 C  
BRANCH   5   6
HETATM    6  C   UNL     1     -10.170  17.047  68.048  1.00  0.00    -0.319 A  
HETATM    7  C   UNL     1     -10.603  18.139  67.325  1.00  0.00    -0.367 A  
HETATM    8  N   UNL     1      -9.586  19.052  67.266  1.00  0.00    -0.308 NA 
HETATM    9  C   UNL     1      -8.486  18.582  67.943  1.00  0.00    -0.275 A  
HETATM   10  H   UNL     1      -9.638  19.952  66.789  1.00  0.00     0.000 HD 
HETATM   11  C   UNL     1      -7.236  19.174  68.156  1.00  0.00    -0.298 A  
HETATM   12  C   UNL     1      -6.290  18.451  68.892  1.00  0.00    -0.237 A  
HETATM   13  C   UNL     1      -6.575  17.177  69.396  1.00  0.00    -0.220 A  
HETATM   14  C   UNL     1      -7.849  16.620  69.186  1.00  0.00    -0.170 A  
HETATM   15  C   UNL     1      -8.819  17.324  68.442  1.00  0.00    -0.269 A  
BRANCH  13  16
HETATM   16  C   UNL     1      -5.526  16.412  70.172  1.00  0.00    -0.188 C  
BRANCH  16  17
HETATM   17  C   UNL     1      -5.325  14.984  69.664  1.00  0.00    -0.090 C  
HETATM   18  C   UNL     1      -6.139  13.930  70.390  1.00  0.00    -0.143 C  
HETATM   19  O   UNL     1      -6.310  12.897  69.406  1.00  0.00    -0.103 OA 
HETATM   20  C   UNL     1      -6.136  13.467  68.176  1.00  0.00    -0.112 C  
HETATM   21  N   UNL     1      -5.757  14.777  68.316  1.00  0.00    -0.107 NA 
HETATM   22  O   UNL     1      -6.257  12.885  67.113  1.00  0.00    -0.281 OA 
ENDBRANCH  16  17
ENDBRANCH  13  16
ENDBRANCH   5   6
ENDBRANCH   4   5
ENDBRANCH   2   4
TORSDOF 5
ENDMDL
MODEL      210
REMARK 921   NORMALIZED FREE ENERGY PREDICTED BY IDOCK:   -3.44 KCAL/MOL
REMARK 922        TOTAL FREE ENERGY PREDICTED BY IDOCK:   -4.89 KCAL/MOL
REMARK 923 INTER-LIGAND FREE ENERGY PREDICTED BY IDOCK:   -4.38 KCAL/MOL
REMARK 924 INTRA-LIGAND FREE ENERGY PREDICTED BY IDOCK:   -0.50 KCAL/MOL
REMARK 927      BINDING AFFINITY PREDICTED BY RF-SCORE:    0.00 PKD
ROOT
HETATM    1  C   UNL     1     -10.597  11.461  68.778  1.00  0.00    -0.204 C  
HETATM    2  N   UNL     1      -9.689  10.653  67.956  1.00  0.00    -0.154 NA 
HETATM    3  C   UNL     1     -10.470   9.760  67.099  1.00  0.00    -0.250 C  
ENDROOT
BRANCH   2   4
HETATM    4  C   UNL     1      -8.803  11.545  67.178  1.00  0.00    -0.168 C  
BRANCH   4   5
HETATM    5  C   UNL     1      -7.306  11.404  67.509  1.00  0.00    -0.112 C  
BRANCH   5   6
HETATM    6  C   UNL     1      -6.894  12.228  68.696  1.00  0.00    -0.087 A  
HETATM    7  C   UNL     1      -6.535  11.753  69.941  1.00  0.00    -0.063 A  
HETATM    8  N   UNL     1      -6.216  12.818  70.737  1.00  0.00    -0.512 NA 
HETATM    9  C   UNL     1      -6.355  13.993  70.036  1.00  0.00    -0.118 A  
HETATM   10  H   UNL     1      -5.918  12.751  71.709  1.00  0.00     0.000 HD 
HETATM   11  C   UNL     1      -6.129  15.315  70.436  1.00  0.00    -0.071 A  
HETATM   12  C   UNL     1      -6.360  16.327  69.498  1.00  0.00    -0.195 A  
HETATM   13  C   UNL     1      -6.808  16.037  68.203  1.00  0.00    -0.130 A  
HETATM   14  C   UNL     1      -7.003  14.696  67.826  1.00  0.00    -0.194 A  
HETATM   15  C   UNL     1      -6.783  13.656  68.754  1.00  0.00    -0.104 A  
BRANCH  13  16
HETATM   16  C   UNL     1      -7.067  17.153  67.217  1.00  0.00    -0.193 C  
BRANCH  16  17
HETATM   17  C   UNL     1      -7.594  18.427  67.877  1.00  0.00    -0.246 C  
HETATM   18  C   UNL     1      -7.414  19.691  67.056  1.00  0.00    -0.232 C  
HETATM   19  O   UNL     1      -8.483  20.540  67.502  1.00  0.00    -0.319 OA 
HETATM   20  C   UNL     1      -9.446  19.738  68.049  1.00  0.00    -0.365 C  
HETATM   21  N   UNL     1      -9.010  18.437  68.079  1.00  0.00    -0.284 NA 
HETATM   22  O   UNL     1     -10.514  20.126  68.485  1.00  0.00    -0.385 OA 
ENDBRANCH  16  17
ENDBRANCH  13  16
ENDBRANCH   5   6
ENDBRANCH   4   5
ENDBRANCH   2   4
TORSDOF 5
ENDMDL
MODEL      211
REMARK 921   NORMALIZED FREE ENERGY PREDICTED BY IDOCK:   -3.44 KCAL/MOL
REMARK 922        TOTAL FREE ENERGY PREDICTED BY IDOCK:   -4.88 KCAL/MOL
REMARK 923 INTER-LIGAND FREE ENERGY PREDICTED BY IDOCK:   -5.98 KCAL/MOL
REMARK 924 INTRA-LIGAND FREE ENERGY PREDICTED BY IDOCK:    1.10 KCAL/MOL
REMARK 927      BINDING AFFINITY PREDICTED BY RF-SCORE:    0.00 PKD
ROOT
HETATM    1  C   UNL     1      -6.633  14.685  67.845  1.00  0.00    -0.164 C  
HETATM    2  N   UNL     1      -7.188  13.330  67.748  1.00  0.00    -0.134 NA 
HETATM    3  C   UNL     1      -6.249  12.374  68.336  1.00  0.00    -0.057 C  
ENDROOT
BRANCH   2   4
HETATM    4  C   UNL     1      -8.512  13.292  68.405  1.00  0.00    -0.128 C  
BRANCH   4   5
HETATM    5  C   UNL     1      -9.602  14.117  67.694  1.00  0.00    -0.216 C  
BRANCH   5   6
HETATM    6  C   UNL     1     -10.408  14.955  68.644  1.00  0.00    -0.237 A  
HETATM    7  C   UNL     1     -10.429  16.333  68.710  1.00  0.00    -0.282 A  
HETATM    8  N   UNL     1     -11.299  16.708  69.696  1.00  0.00    -0.298 NA 
HETATM    9  C   UNL     1     -11.858  15.598  70.284  1.00  0.00    -0.365 A  
HETATM   10  H   UNL     1     -11.503  17.672  69.958  1.00  0.00     0.000 HD 
HETATM   11  C   UNL     1     -12.799  15.499  71.314  1.00  0.00    -0.540 A  
HETATM   12  C   UNL     1     -13.190  14.217  71.718  1.00  0.00    -0.444 A  
HETATM   13  C   UNL     1     -12.659  13.068  71.120  1.00  0.00    -0.388 A  
HETATM   14  C   UNL     1     -11.733  13.202  70.071  1.00  0.00    -0.291 A  
HETATM   15  C   UNL     1     -11.316  14.482  69.648  1.00  0.00    -0.314 A  
BRANCH  13  16
HETATM   16  C   UNL     1     -13.087  11.696  71.590  1.00  0.00    -0.456 C  
BRANCH  16  17
HETATM   17  C   UNL     1     -12.533  10.565  70.726  1.00  0.00    -0.378 C  
HETATM   18  C   UNL     1     -12.150  10.970  69.315  1.00  0.00    -0.292 C  
HETATM   19  O   UNL     1     -11.123  10.032  68.959  1.00  0.00    -0.223 OA 
HETATM   20  C   UNL     1     -10.595   9.540  70.120  1.00  0.00    -0.254 C  
HETATM   21  N   UNL     1     -11.295  10.023  71.195  1.00  0.00    -0.359 NA 
HETATM   22  O   UNL     1      -9.668   8.753  70.187  1.00  0.00    -0.165 OA 
ENDBRANCH  16  17
ENDBRANCH  13  16
ENDBRANCH   5   6
ENDBRANCH   4   5
ENDBRANCH   2   4
TORSDOF 5
ENDMDL
MODEL      212
REMARK 921   NORMALIZED FREE ENERGY PREDICTED BY IDOCK:   -3.34 KCAL/MOL
REMARK 922        TOTAL FREE ENERGY PREDICTED BY IDOCK:   -4.75 KCAL/MOL
REMARK 923 INTER-LIGAND FREE ENERGY PREDICTED BY IDOCK:   -4.19 KCAL/MOL
REMARK 924 INTRA-LIGAND FREE ENERGY PREDICTED BY IDOCK:   -0.56 KCAL/MOL
REMARK 927      BINDING AFFINITY PREDICTED BY RF-SCORE:    0.00 PKD
ROOT
HETATM    1  C   UNL     1      -8.304   6.797  66.997  1.00  0.00    -0.114 C  
HETATM    2  N   UNL     1      -6.905   6.984  67.399  1.00  0.00    -0.070 NA 
HETATM    3  C   UNL     1      -6.598   8.415  67.450  1.00  0.00    -0.059 C  
ENDROOT
BRANCH   2   4
HETATM    4  C   UNL     1      -6.672   6.314  68.696  1.00  0.00    -0.061 C  
BRANCH   4   5
HETATM    5  C   UNL     1      -7.812   5.382  69.148  1.00  0.00    -0.090 C  
BRANCH   5   6
HETATM    6  C   UNL     1      -8.197   5.590  70.584  1.00  0.00    -0.116 A  
HETATM    7  C   UNL     1      -7.634   4.976  71.684  1.00  0.00    -0.104 A  
HETATM    8  N   UNL     1      -8.254   5.444  72.809  1.00  0.00    -0.109 NA 
HETATM    9  C   UNL     1      -9.219   6.364  72.472  1.00  0.00    -0.139 A  
HETATM   10  H   UNL     1      -8.032   5.154  73.761  1.00  0.00     0.000 HD 
HETATM   11  C   UNL     1     -10.083   7.104  73.285  1.00  0.00    -0.318 A  
HETATM   12  C   UNL     1     -10.979   7.977  72.657  1.00  0.00    -0.448 A  
HETATM   13  C   UNL     1     -11.019   8.108  71.263  1.00  0.00    -0.281 A  
HETATM   14  C   UNL     1     -10.120   7.367  70.476  1.00  0.00    -0.192 A  
HETATM   15  C   UNL     1      -9.210   6.474  71.083  1.00  0.00    -0.156 A  
BRANCH  13  16
HETATM   16  C   UNL     1     -12.010   9.045  70.612  1.00  0.00    -0.138 C  
BRANCH  16  17
HETATM   17  C   UNL     1     -11.372  10.339  70.109  1.00  0.00    -0.316 C  
HETATM   18  C   UNL     1     -11.301  10.469  68.599  1.00  0.00    -0.252 C  
HETATM   19  O   UNL     1     -11.313  11.888  68.379  1.00  0.00    -0.229 OA 
HETATM   20  C   UNL     1     -11.863  12.471  69.487  1.00  0.00    -0.310 C  
HETATM   21  N   UNL     1     -12.103  11.521  70.446  1.00  0.00    -0.372 NA 
HETATM   22  O   UNL     1     -12.069  13.665  69.619  1.00  0.00    -0.316 OA 
ENDBRANCH  16  17
ENDBRANCH  13  16
ENDBRANCH   5   6
ENDBRANCH   4   5
ENDBRANCH   2   4
TORSDOF 5
ENDMDL
MODEL      213
REMARK 921   NORMALIZED FREE ENERGY PREDICTED BY IDOCK:   -3.34 KCAL/MOL
REMARK 922        TOTAL FREE ENERGY PREDICTED BY IDOCK:   -4.75 KCAL/MOL
REMARK 923 INTER-LIGAND FREE ENERGY PREDICTED BY IDOCK:   -4.36 KCAL/MOL
REMARK 924 INTRA-LIGAND FREE ENERGY PREDICTED BY IDOCK:   -0.39 KCAL/MOL
REMARK 927      BINDING AFFINITY PREDICTED BY RF-SCORE:    0.00 PKD
ROOT
HETATM    1  C   UNL     1     -11.474   6.516  72.300  1.00  0.00    -0.289 C  
HETATM    2  N   UNL     1     -10.303   6.208  71.472  1.00  0.00    -0.204 NA 
HETATM    3  C   UNL     1     -10.500   4.920  70.806  1.00  0.00    -0.096 C  
ENDROOT
BRANCH   2   4
HETATM    4  C   UNL     1     -10.075   7.308  70.510  1.00  0.00    -0.191 C  
BRANCH   4   5
HETATM    5  C   UNL     1      -8.680   7.306  69.857  1.00  0.00    -0.141 C  
BRANCH   5   6
HETATM    6  C   UNL     1      -7.897   8.552  70.158  1.00  0.00    -0.099 A  
HETATM    7  C   UNL     1      -7.047   8.751  71.225  1.00  0.00    -0.092 A  
HETATM    8  N   UNL     1      -6.519  10.010  71.133  1.00  0.00    -0.326 NA 
HETATM    9  C   UNL     1      -7.005  10.647  70.016  1.00  0.00    -0.126 A  
HETATM   10  H   UNL     1      -5.860  10.416  71.796  1.00  0.00     0.000 HD 
HETATM   11  C   UNL     1      -6.736  11.927  69.518  1.00  0.00    -0.054 A  
HETATM   12  C   UNL     1      -7.387  12.318  68.343  1.00  0.00    -0.109 A  
HETATM   13  C   UNL     1      -8.284  11.467  67.685  1.00  0.00    -0.131 A  
HETATM   14  C   UNL     1      -8.514  10.179  68.198  1.00  0.00    -0.118 A  
HETATM   15  C   UNL     1      -7.875   9.760  69.385  1.00  0.00    -0.114 A  
BRANCH  13  16
HETATM   16  C   UNL     1      -8.987  11.925  66.427  1.00  0.00    -0.180 C  
BRANCH  16  17
HETATM   17  C   UNL     1     -10.066  12.975  66.691  1.00  0.00    -0.251 C  
HETATM   18  C   UNL     1      -9.872  14.287  65.955  1.00  0.00    -0.298 C  
HETATM   19  O   UNL     1     -11.207  14.797  65.814  1.00  0.00    -0.330 OA 
HETATM   20  C   UNL     1     -12.067  13.740  65.924  1.00  0.00    -0.433 C  
HETATM   21  N   UNL     1     -11.369  12.601  66.236  1.00  0.00    -0.311 NA 
HETATM   22  O   UNL     1     -13.277  13.807  65.807  1.00  0.00    -0.467 OA 
ENDBRANCH  16  17
ENDBRANCH  13  16
ENDBRANCH   5   6
ENDBRANCH   4   5
ENDBRANCH   2   4
TORSDOF 5
ENDMDL
MODEL      214
REMARK 921   NORMALIZED FREE ENERGY PREDICTED BY IDOCK:   -3.33 KCAL/MOL
REMARK 922        TOTAL FREE ENERGY PREDICTED BY IDOCK:   -4.74 KCAL/MOL
REMARK 923 INTER-LIGAND FREE ENERGY PREDICTED BY IDOCK:   -4.54 KCAL/MOL
REMARK 924 INTRA-LIGAND FREE ENERGY PREDICTED BY IDOCK:   -0.21 KCAL/MOL
REMARK 927      BINDING AFFINITY PREDICTED BY RF-SCORE:    0.00 PKD
ROOT
HETATM    1  C   UNL     1      -6.526   8.564  68.672  1.00  0.00    -0.054 C  
HETATM    2  N   UNL     1      -7.061   9.926  68.777  1.00  0.00    -0.066 NA 
HETATM    3  C   UNL     1      -6.055  10.801  69.380  1.00  0.00    -0.053 C  
ENDROOT
BRANCH   2   4
HETATM    4  C   UNL     1      -7.483  10.394  67.439  1.00  0.00    -0.094 C  
BRANCH   4   5
HETATM    5  C   UNL     1      -7.528  11.926  67.284  1.00  0.00    -0.151 C  
BRANCH   5   6
HETATM    6  C   UNL     1      -8.809  12.524  67.792  1.00  0.00    -0.178 A  
HETATM    7  C   UNL     1     -10.028  11.886  67.900  1.00  0.00    -0.191 A  
HETATM    8  N   UNL     1     -10.936  12.767  68.418  1.00  0.00    -0.242 NA 
HETATM    9  C   UNL     1     -10.336  13.981  68.658  1.00  0.00    -0.238 A  
HETATM   10  H   UNL     1     -11.916  12.555  68.600  1.00  0.00     0.000 HD 
HETATM   11  C   UNL     1     -10.867  15.161  69.190  1.00  0.00    -0.251 A  
HETATM   12  C   UNL     1     -10.010  16.259  69.320  1.00  0.00    -0.259 A  
HETATM   13  C   UNL     1      -8.667  16.191  68.929  1.00  0.00    -0.248 A  
HETATM   14  C   UNL     1      -8.159  14.983  68.420  1.00  0.00    -0.141 A  
HETATM   15  C   UNL     1      -9.002  13.861  68.272  1.00  0.00    -0.187 A  
BRANCH  13  16
HETATM   16  C   UNL     1      -7.770  17.400  69.064  1.00  0.00    -0.148 C  
BRANCH  16  17
HETATM   17  C   UNL     1      -7.948  18.410  67.930  1.00  0.00    -0.258 C  
HETATM   18  C   UNL     1      -7.813  17.831  66.535  1.00  0.00    -0.266 C  
HETATM   19  O   UNL     1      -8.619  18.702  65.726  1.00  0.00    -0.430 OA 
HETATM   20  C   UNL     1      -9.513  19.322  66.554  1.00  0.00    -0.357 C  
HETATM   21  N   UNL     1      -9.256  18.983  67.858  1.00  0.00    -0.295 NA 
HETATM   22  O   UNL     1     -10.381  20.096  66.192  1.00  0.00    -0.431 OA 
ENDBRANCH  16  17
ENDBRANCH  13  16
ENDBRANCH   5   6
ENDBRANCH   4   5
ENDBRANCH   2   4
TORSDOF 5
ENDMDL
MODEL      215
REMARK 921   NORMALIZED FREE ENERGY PREDICTED BY IDOCK:   -3.32 KCAL/MOL
REMARK 922        TOTAL FREE ENERGY PREDICTED BY IDOCK:   -4.73 KCAL/MOL
REMARK 923 INTER-LIGAND FREE ENERGY PREDICTED BY IDOCK:   -4.93 KCAL/MOL
REMARK 924 INTRA-LIGAND FREE ENERGY PREDICTED BY IDOCK:    0.20 KCAL/MOL
REMARK 927      BINDING AFFINITY PREDICTED BY RF-SCORE:    0.00 PKD
ROOT
HETATM    1  C   UNL     1      -8.510   5.855  64.501  1.00  0.00    -0.004 C  
HETATM    2  N   UNL     1      -7.671   6.359  65.594  1.00  0.00    -0.089 NA 
HETATM    3  C   UNL     1      -7.351   5.263  66.510  1.00  0.00    -0.086 C  
ENDROOT
BRANCH   2   4
HETATM    4  C   UNL     1      -6.459   6.994  65.033  1.00  0.00    -0.043 C  
BRANCH   4   5
HETATM    5  C   UNL     1      -6.126   8.373  65.631  1.00  0.00    -0.045 C  
BRANCH   5   6
HETATM    6  C   UNL     1      -7.195   8.877  66.559  1.00  0.00    -0.085 A  
HETATM    7  C   UNL     1      -7.213   8.759  67.933  1.00  0.00    -0.084 A  
HETATM    8  N   UNL     1      -8.347   9.358  68.406  1.00  0.00    -0.118 NA 
HETATM    9  C   UNL     1      -9.081   9.875  67.365  1.00  0.00    -0.134 A  
HETATM   10  H   UNL     1      -8.611   9.413  69.389  1.00  0.00     0.000 HD 
HETATM   11  C   UNL     1     -10.291  10.577  67.374  1.00  0.00    -0.269 A  
HETATM   12  C   UNL     1     -10.815  10.986  66.143  1.00  0.00    -0.212 A  
HETATM   13  C   UNL     1     -10.161  10.703  64.938  1.00  0.00    -0.402 A  
HETATM   14  C   UNL     1      -8.934  10.016  64.965  1.00  0.00    -0.234 A  
HETATM   15  C   UNL     1      -8.385   9.586  66.192  1.00  0.00    -0.118 A  
BRANCH  13  16
HETATM   16  C   UNL     1     -10.761  11.142  63.621  1.00  0.00    -0.381 C  
BRANCH  16  17
HETATM   17  C   UNL     1     -11.288  12.576  63.650  1.00  0.00    -0.485 C  
HETATM   18  C   UNL     1     -12.631  12.748  64.334  1.00  0.00    -0.352 C  
HETATM   19  O   UNL     1     -12.598  14.103  64.810  1.00  0.00    -0.608 OA 
HETATM   20  C   UNL     1     -11.286  14.475  64.902  1.00  0.00    -0.394 C  
HETATM   21  N   UNL     1     -10.481  13.480  64.410  1.00  0.00    -0.417 NA 
HETATM   22  O   UNL     1     -10.892  15.550  65.317  1.00  0.00    -0.366 OA 
ENDBRANCH  16  17
ENDBRANCH  13  16
ENDBRANCH   5   6
ENDBRANCH   4   5
ENDBRANCH   2   4
TORSDOF 5
ENDMDL
MODEL      216
REMARK 921   NORMALIZED FREE ENERGY PREDICTED BY IDOCK:   -3.31 KCAL/MOL
REMARK 922        TOTAL FREE ENERGY PREDICTED BY IDOCK:   -4.71 KCAL/MOL
REMARK 923 INTER-LIGAND FREE ENERGY PREDICTED BY IDOCK:   -4.09 KCAL/MOL
REMARK 924 INTRA-LIGAND FREE ENERGY PREDICTED BY IDOCK:   -0.63 KCAL/MOL
REMARK 927      BINDING AFFINITY PREDICTED BY RF-SCORE:    0.00 PKD
ROOT
HETATM    1  C   UNL     1     -10.180   9.298  68.805  1.00  0.00    -0.205 C  
HETATM    2  N   UNL     1      -9.894   7.859  68.850  1.00  0.00    -0.169 NA 
HETATM    3  C   UNL     1     -10.914   7.183  69.653  1.00  0.00    -0.212 C  
ENDROOT
BRANCH   2   4
HETATM    4  C   UNL     1      -9.821   7.328  67.472  1.00  0.00    -0.155 C  
BRANCH   4   5
HETATM    5  C   UNL     1     -10.901   6.283  67.133  1.00  0.00    -0.460 C  
BRANCH   5   6
HETATM    6  C   UNL     1     -10.320   4.982  66.657  1.00  0.00    -0.312 A  
HETATM    7  C   UNL     1     -10.241   4.546  65.350  1.00  0.00    -0.202 A  
HETATM    8  N   UNL     1      -9.634   3.321  65.336  1.00  0.00    -0.318 NA 
HETATM    9  C   UNL     1      -9.306   2.939  66.616  1.00  0.00    -0.057 A  
HETATM   10  H   UNL     1      -9.451   2.770  64.498  1.00  0.00     0.000 HD 
HETATM   11  C   UNL     1      -8.667   1.783  67.077  1.00  0.00    -0.124 A  
HETATM   12  C   UNL     1      -8.463   1.658  68.456  1.00  0.00    -0.083 A  
HETATM   13  C   UNL     1      -8.885   2.649  69.351  1.00  0.00    -0.151 A  
HETATM   14  C   UNL     1      -9.503   3.810  68.853  1.00  0.00    -0.223 A  
HETATM   15  C   UNL     1      -9.727   3.959  67.467  1.00  0.00    -0.164 A  
BRANCH  13  16
HETATM   16  C   UNL     1      -8.667   2.478  70.837  1.00  0.00    -0.117 C  
BRANCH  16  17
HETATM   17  C   UNL     1      -9.901   2.825  71.669  1.00  0.00    -0.141 C  
HETATM   18  C   UNL     1     -10.330   1.751  72.651  1.00  0.00    -0.149 C  
HETATM   19  O   UNL     1     -10.994   2.488  73.690  1.00  0.00    -0.176 OA 
HETATM   20  C   UNL     1     -10.547   3.778  73.631  1.00  0.00    -0.203 C  
HETATM   21  N   UNL     1      -9.719   3.938  72.549  1.00  0.00    -0.137 NA 
HETATM   22  O   UNL     1     -10.869   4.666  74.399  1.00  0.00    -0.328 OA 
ENDBRANCH  16  17
ENDBRANCH  13  16
ENDBRANCH   5   6
ENDBRANCH   4   5
ENDBRANCH   2   4
TORSDOF 5
ENDMDL
MODEL      217
REMARK 921   NORMALIZED FREE ENERGY PREDICTED BY IDOCK:   -3.27 KCAL/MOL
REMARK 922        TOTAL FREE ENERGY PREDICTED BY IDOCK:   -4.67 KCAL/MOL
REMARK 923 INTER-LIGAND FREE ENERGY PREDICTED BY IDOCK:   -4.45 KCAL/MOL
REMARK 924 INTRA-LIGAND FREE ENERGY PREDICTED BY IDOCK:   -0.22 KCAL/MOL
REMARK 927      BINDING AFFINITY PREDICTED BY RF-SCORE:    0.00 PKD
ROOT
HETATM    1  C   UNL     1      -6.591   8.183  73.037  1.00  0.00    -0.090 C  
HETATM    2  N   UNL     1      -6.542   9.205  71.985  1.00  0.00    -0.290 NA 
HETATM    3  C   UNL     1      -5.277   9.936  72.073  1.00  0.00    -0.044 C  
ENDROOT
BRANCH   2   4
HETATM    4  C   UNL     1      -6.728   8.563  70.666  1.00  0.00    -0.040 C  
BRANCH   4   5
HETATM    5  C   UNL     1      -6.841   7.028  70.713  1.00  0.00    -0.054 C  
BRANCH   5   6
HETATM    6  C   UNL     1      -8.218   6.536  70.367  1.00  0.00    -0.125 A  
HETATM    7  C   UNL     1      -8.991   5.666  71.108  1.00  0.00    -0.138 A  
HETATM    8  N   UNL     1     -10.181   5.481  70.460  1.00  0.00    -0.224 NA 
HETATM    9  C   UNL     1     -10.209   6.219  69.300  1.00  0.00    -0.193 A  
HETATM   10  H   UNL     1     -10.937   4.883  70.789  1.00  0.00     0.000 HD 
HETATM   11  C   UNL     1     -11.215   6.348  68.337  1.00  0.00    -0.297 A  
HETATM   12  C   UNL     1     -10.963   7.180  67.239  1.00  0.00    -0.333 A  
HETATM   13  C   UNL     1      -9.747   7.858  67.099  1.00  0.00    -0.249 A  
HETATM   14  C   UNL     1      -8.765   7.726  68.097  1.00  0.00    -0.126 A  
HETATM   15  C   UNL     1      -8.990   6.889  69.211  1.00  0.00    -0.137 A  
BRANCH  13  16
HETATM   16  C   UNL     1      -9.496   8.735  65.893  1.00  0.00    -0.278 C  
BRANCH  16  17
HETATM   17  C   UNL     1      -9.745  10.218  66.166  1.00  0.00    -0.211 C  
HETATM   18  C   UNL     1     -10.047  11.050  64.935  1.00  0.00    -0.300 C  
HETATM   19  O   UNL     1     -10.845  12.131  65.443  1.00  0.00    -0.276 OA 
HETATM   20  C   UNL     1     -11.392  11.718  66.626  1.00  0.00    -0.316 C  
HETATM   21  N   UNL     1     -10.905  10.480  66.960  1.00  0.00    -0.255 NA 
HETATM   22  O   UNL     1     -12.163  12.371  67.306  1.00  0.00    -0.478 OA 
ENDBRANCH  16  17
ENDBRANCH  13  16
ENDBRANCH   5   6
ENDBRANCH   4   5
ENDBRANCH   2   4
TORSDOF 5
ENDMDL
MODEL      218
REMARK 921   NORMALIZED FREE ENERGY PREDICTED BY IDOCK:   -3.27 KCAL/MOL
REMARK 922        TOTAL FREE ENERGY PREDICTED BY IDOCK:   -4.67 KCAL/MOL
REMARK 923 INTER-LIGAND FREE ENERGY PREDICTED BY IDOCK:   -4.14 KCAL/MOL
REMARK 924 INTRA-LIGAND FREE ENERGY PREDICTED BY IDOCK:   -0.53 KCAL/MOL
REMARK 927      BINDING AFFINITY PREDICTED BY RF-SCORE:    0.00 PKD
ROOT
HETATM    1  C   UNL     1     -11.129  16.142  64.759  1.00  0.00    -0.333 C  
HETATM    2  N   UNL     1     -10.067  16.950  65.369  1.00  0.00    -0.590 NA 
HETATM    3  C   UNL     1     -10.656  18.113  66.032  1.00  0.00    -0.264 C  
ENDROOT
BRANCH   2   4
HETATM    4  C   UNL     1      -9.282  16.110  66.300  1.00  0.00    -0.331 C  
BRANCH   4   5
HETATM    5  C   UNL     1      -7.787  16.471  66.379  1.00  0.00    -0.324 C  
BRANCH   5   6
HETATM    6  C   UNL     1      -7.210  16.259  67.750  1.00  0.00    -0.152 A  
HETATM    7  C   UNL     1      -6.950  17.233  68.691  1.00  0.00    -0.220 A  
HETATM    8  N   UNL     1      -6.443  16.632  69.810  1.00  0.00    -0.193 NA 
HETATM    9  C   UNL     1      -6.367  15.271  69.625  1.00  0.00    -0.154 A  
HETATM   10  H   UNL     1      -6.162  17.121  70.659  1.00  0.00     0.000 HD 
HETATM   11  C   UNL     1      -5.929  14.265  70.493  1.00  0.00    -0.183 A  
HETATM   12  C   UNL     1      -5.960  12.946  70.028  1.00  0.00    -0.139 A  
HETATM   13  C   UNL     1      -6.408  12.634  68.738  1.00  0.00    -0.080 A  
HETATM   14  C   UNL     1      -6.864  13.666  67.899  1.00  0.00    -0.155 A  
HETATM   15  C   UNL     1      -6.838  15.007  68.340  1.00  0.00    -0.110 A  
BRANCH  13  16
HETATM   16  C   UNL     1      -6.412  11.201  68.258  1.00  0.00    -0.057 C  
BRANCH  16  17
HETATM   17  C   UNL     1      -7.494  10.920  67.215  1.00  0.00    -0.104 C  
HETATM   18  C   UNL     1      -7.085   9.959  66.115  1.00  0.00    -0.103 C  
HETATM   19  O   UNL     1      -8.327   9.367  65.703  1.00  0.00    -0.116 OA 
HETATM   20  C   UNL     1      -9.214   9.512  66.733  1.00  0.00    -0.149 C  
HETATM   21  N   UNL     1      -8.650  10.258  67.736  1.00  0.00    -0.118 NA 
HETATM   22  O   UNL     1     -10.354   9.082  66.740  1.00  0.00    -0.261 OA 
ENDBRANCH  16  17
ENDBRANCH  13  16
ENDBRANCH   5   6
ENDBRANCH   4   5
ENDBRANCH   2   4
TORSDOF 5
ENDMDL
MODEL      219
REMARK 921   NORMALIZED FREE ENERGY PREDICTED BY IDOCK:   -3.21 KCAL/MOL
REMARK 922        TOTAL FREE ENERGY PREDICTED BY IDOCK:   -4.59 KCAL/MOL
REMARK 923 INTER-LIGAND FREE ENERGY PREDICTED BY IDOCK:   -4.08 KCAL/MOL
REMARK 924 INTRA-LIGAND FREE ENERGY PREDICTED BY IDOCK:   -0.52 KCAL/MOL
REMARK 927      BINDING AFFINITY PREDICTED BY RF-SCORE:    0.00 PKD
ROOT
HETATM    1  C   UNL     1      -6.107   9.183  72.133  1.00  0.00     0.014 C  
HETATM    2  N   UNL     1      -6.035   9.966  70.894  1.00  0.00    -0.087 NA 
HETATM    3  C   UNL     1      -5.217  11.159  71.116  1.00  0.00    -0.098 C  
ENDROOT
BRANCH   2   4
HETATM    4  C   UNL     1      -5.505   9.117  69.805  1.00  0.00    -0.033 C  
BRANCH   4   5
HETATM    5  C   UNL     1      -6.251   7.783  69.615  1.00  0.00    -0.030 C  
BRANCH   5   6
HETATM    6  C   UNL     1      -7.174   7.798  68.429  1.00  0.00    -0.093 A  
HETATM    7  C   UNL     1      -7.029   7.071  67.266  1.00  0.00    -0.078 A  
HETATM    8  N   UNL     1      -8.083   7.355  66.442  1.00  0.00    -0.114 NA 
HETATM    9  C   UNL     1      -8.927   8.258  67.044  1.00  0.00    -0.140 A  
HETATM   10  H   UNL     1      -8.223   6.954  65.515  1.00  0.00     0.000 HD 
HETATM   11  C   UNL     1     -10.124   8.819  66.587  1.00  0.00    -0.358 A  
HETATM   12  C   UNL     1     -10.780   9.727  67.425  1.00  0.00    -0.314 A  
HETATM   13  C   UNL     1     -10.260  10.073  68.678  1.00  0.00    -0.198 A  
HETATM   14  C   UNL     1      -9.067   9.473  69.119  1.00  0.00    -0.152 A  
HETATM   15  C   UNL     1      -8.382   8.558  68.291  1.00  0.00    -0.124 A  
BRANCH  13  16
HETATM   16  C   UNL     1     -10.981  11.073  69.554  1.00  0.00    -0.297 C  
BRANCH  16  17
HETATM   17  C   UNL     1     -11.553  10.452  70.828  1.00  0.00    -0.358 C  
HETATM   18  C   UNL     1     -12.708  11.217  71.446  1.00  0.00    -0.396 C  
HETATM   19  O   UNL     1     -13.453  10.204  72.141  1.00  0.00    -0.411 OA 
HETATM   20  C   UNL     1     -13.137   9.000  71.575  1.00  0.00    -0.335 C  
HETATM   21  N   UNL     1     -12.153   9.168  70.635  1.00  0.00    -0.145 NA 
HETATM   22  O   UNL     1     -13.625   7.930  71.892  1.00  0.00    -0.331 OA 
ENDBRANCH  16  17
ENDBRANCH  13  16
ENDBRANCH   5   6
ENDBRANCH   4   5
ENDBRANCH   2   4
TORSDOF 5
ENDMDL
MODEL      220
REMARK 921   NORMALIZED FREE ENERGY PREDICTED BY IDOCK:   -3.16 KCAL/MOL
REMARK 922        TOTAL FREE ENERGY PREDICTED BY IDOCK:   -4.53 KCAL/MOL
REMARK 923 INTER-LIGAND FREE ENERGY PREDICTED BY IDOCK:   -4.15 KCAL/MOL
REMARK 924 INTRA-LIGAND FREE ENERGY PREDICTED BY IDOCK:   -0.38 KCAL/MOL
REMARK 927      BINDING AFFINITY PREDICTED BY RF-SCORE:    0.00 PKD
ROOT
HETATM    1  C   UNL     1      -8.927   4.332  65.543  1.00  0.00    -0.132 C  
HETATM    2  N   UNL     1      -8.111   4.309  66.762  1.00  0.00    -0.101 NA 
HETATM    3  C   UNL     1      -8.066   2.947  67.296  1.00  0.00    -0.078 C  
ENDROOT
BRANCH   2   4
HETATM    4  C   UNL     1      -6.763   4.840  66.464  1.00  0.00    -0.054 C  
BRANCH   4   5
HETATM    5  C   UNL     1      -6.340   6.036  67.336  1.00  0.00    -0.038 C  
BRANCH   5   6
HETATM    6  C   UNL     1      -7.388   6.421  68.341  1.00  0.00    -0.087 A  
HETATM    7  C   UNL     1      -7.559   5.881  69.599  1.00  0.00    -0.081 A  
HETATM    8  N   UNL     1      -8.611   6.511  70.204  1.00  0.00    -0.138 NA 
HETATM    9  C   UNL     1      -9.140   7.464  69.366  1.00  0.00    -0.139 A  
HETATM   10  H   UNL     1      -8.954   6.304  71.141  1.00  0.00     0.000 HD 
HETATM   11  C   UNL     1     -10.204   8.350  69.564  1.00  0.00    -0.207 A  
HETATM   12  C   UNL     1     -10.528   9.222  68.518  1.00  0.00    -0.240 A  
HETATM   13  C   UNL     1      -9.821   9.210  67.309  1.00  0.00    -0.244 A  
HETATM   14  C   UNL     1      -8.741   8.323  67.151  1.00  0.00    -0.127 A  
HETATM   15  C   UNL     1      -8.396   7.429  68.187  1.00  0.00    -0.124 A  
BRANCH  13  16
HETATM   16  C   UNL     1     -10.207  10.151  66.190  1.00  0.00    -0.285 C  
BRANCH  16  17
HETATM   17  C   UNL     1     -10.475  11.577  66.670  1.00  0.00    -0.238 C  
HETATM   18  C   UNL     1      -9.691  12.652  65.941  1.00  0.00    -0.207 C  
HETATM   19  O   UNL     1     -10.524  13.816  66.057  1.00  0.00    -0.285 OA 
HETATM   20  C   UNL     1     -11.800  13.388  66.297  1.00  0.00    -0.394 C  
HETATM   21  N   UNL     1     -11.815  12.025  66.451  1.00  0.00    -0.593 NA 
HETATM   22  O   UNL     1     -12.773  14.113  66.403  1.00  0.00    -0.356 OA 
ENDBRANCH  16  17
ENDBRANCH  13  16
ENDBRANCH   5   6
ENDBRANCH   4   5
ENDBRANCH   2   4
TORSDOF 5
ENDMDL
MODEL      221
REMARK 921   NORMALIZED FREE ENERGY PREDICTED BY IDOCK:   -3.16 KCAL/MOL
REMARK 922        TOTAL FREE ENERGY PREDICTED BY IDOCK:   -4.53 KCAL/MOL
REMARK 923 INTER-LIGAND FREE ENERGY PREDICTED BY IDOCK:   -4.54 KCAL/MOL
REMARK 924 INTRA-LIGAND FREE ENERGY PREDICTED BY IDOCK:    0.01 KCAL/MOL
REMARK 927      BINDING AFFINITY PREDICTED BY RF-SCORE:    0.00 PKD
ROOT
HETATM    1  C   UNL     1     -13.620  10.063  71.933  1.00  0.00    -0.262 C  
HETATM    2  N   UNL     1     -13.497   8.672  72.382  1.00  0.00    -0.361 NA 
HETATM    3  C   UNL     1     -14.372   7.819  71.576  1.00  0.00    -0.447 C  
ENDROOT
BRANCH   2   4
HETATM    4  C   UNL     1     -12.081   8.253  72.306  1.00  0.00    -0.379 C  
BRANCH   4   5
HETATM    5  C   UNL     1     -11.121   9.339  71.784  1.00  0.00    -0.398 C  
BRANCH   5   6
HETATM    6  C   UNL     1      -9.762   8.797  71.444  1.00  0.00    -0.351 A  
HETATM    7  C   UNL     1      -8.728   8.558  72.325  1.00  0.00    -0.190 A  
HETATM    8  N   UNL     1      -7.667   8.053  71.624  1.00  0.00    -0.084 NA 
HETATM    9  C   UNL     1      -7.984   7.952  70.290  1.00  0.00    -0.102 A  
HETATM   10  H   UNL     1      -6.771   7.791  72.032  1.00  0.00     0.000 HD 
HETATM   11  C   UNL     1      -7.223   7.482  69.215  1.00  0.00    -0.086 A  
HETATM   12  C   UNL     1      -7.811   7.497  67.945  1.00  0.00    -0.117 A  
HETATM   13  C   UNL     1      -9.114   7.969  67.748  1.00  0.00    -0.136 A  
HETATM   14  C   UNL     1      -9.862   8.412  68.854  1.00  0.00    -0.184 A  
HETATM   15  C   UNL     1      -9.291   8.414  70.145  1.00  0.00    -0.164 A  
BRANCH  13  16
HETATM   16  C   UNL     1      -9.717   7.991  66.361  1.00  0.00    -0.255 C  
BRANCH  16  17
HETATM   17  C   UNL     1     -10.020   9.403  65.860  1.00  0.00    -0.256 C  
HETATM   18  C   UNL     1      -9.476  10.519  66.732  1.00  0.00    -0.163 C  
HETATM   19  O   UNL     1      -9.288  11.606  65.813  1.00  0.00    -0.229 OA 
HETATM   20  C   UNL     1      -9.190  11.074  64.558  1.00  0.00    -0.164 C  
HETATM   21  N   UNL     1      -9.412   9.721  64.606  1.00  0.00    -0.273 NA 
HETATM   22  O   UNL     1      -8.980  11.711  63.542  1.00  0.00     0.060 OA 
ENDBRANCH  16  17
ENDBRANCH  13  16
ENDBRANCH   5   6
ENDBRANCH   4   5
ENDBRANCH   2   4
TORSDOF 5
ENDMDL
MODEL      222
REMARK 921   NORMALIZED FREE ENERGY PREDICTED BY IDOCK:   -3.16 KCAL/MOL
REMARK 922        TOTAL FREE ENERGY PREDICTED BY IDOCK:   -4.52 KCAL/MOL
REMARK 923 INTER-LIGAND FREE ENERGY PREDICTED BY IDOCK:   -4.79 KCAL/MOL
REMARK 924 INTRA-LIGAND FREE ENERGY PREDICTED BY IDOCK:    0.26 KCAL/MOL
REMARK 927      BINDING AFFINITY PREDICTED BY RF-SCORE:    0.00 PKD
ROOT
HETATM    1  C   UNL     1     -11.405  15.926  64.625  1.00  0.00    -0.322 C  
HETATM    2  N   UNL     1     -10.222  16.605  65.166  1.00  0.00    -0.565 NA 
HETATM    3  C   UNL     1     -10.633  17.825  65.860  1.00  0.00    -0.205 C  
ENDROOT
BRANCH   2   4
HETATM    4  C   UNL     1      -9.482  15.678  66.049  1.00  0.00    -0.355 C  
BRANCH   4   5
HETATM    5  C   UNL     1      -8.075  16.163  66.448  1.00  0.00    -0.305 C  
BRANCH   5   6
HETATM    6  C   UNL     1      -7.369  15.205  67.364  1.00  0.00    -0.235 A  
HETATM    7  C   UNL     1      -6.265  15.477  68.146  1.00  0.00    -0.130 A  
HETATM    8  N   UNL     1      -5.936  14.346  68.842  1.00  0.00    -0.084 NA 
HETATM    9  C   UNL     1      -6.808  13.329  68.535  1.00  0.00    -0.099 A  
HETATM   10  H   UNL     1      -5.157  14.269  69.494  1.00  0.00     0.000 HD 
HETATM   11  C   UNL     1      -6.865  12.014  69.010  1.00  0.00    -0.105 A  
HETATM   12  C   UNL     1      -7.876  11.185  68.512  1.00  0.00    -0.136 A  
HETATM   13  C   UNL     1      -8.800  11.645  67.565  1.00  0.00    -0.158 A  
HETATM   14  C   UNL     1      -8.730  12.979  67.125  1.00  0.00    -0.204 A  
HETATM   15  C   UNL     1      -7.717  13.835  67.607  1.00  0.00    -0.187 A  
BRANCH  13  16
HETATM   16  C   UNL     1      -9.869  10.720  67.031  1.00  0.00    -0.221 C  
BRANCH  16  17
HETATM   17  C   UNL     1      -9.683   9.268  67.471  1.00  0.00    -0.158 C  
HETATM   18  C   UNL     1     -10.402   8.894  68.753  1.00  0.00    -0.211 C  
HETATM   19  O   UNL     1     -10.638   7.484  68.611  1.00  0.00    -0.197 OA 
HETATM   20  C   UNL     1     -10.591   7.192  67.276  1.00  0.00    -0.327 C  
HETATM   21  N   UNL     1     -10.232   8.307  66.564  1.00  0.00    -0.262 NA 
HETATM   22  O   UNL     1     -10.796   6.092  66.794  1.00  0.00    -0.319 OA 
ENDBRANCH  16  17
ENDBRANCH  13  16
ENDBRANCH   5   6
ENDBRANCH   4   5
ENDBRANCH   2   4
TORSDOF 5
ENDMDL
MODEL      223
REMARK 921   NORMALIZED FREE ENERGY PREDICTED BY IDOCK:   -3.12 KCAL/MOL
REMARK 922        TOTAL FREE ENERGY PREDICTED BY IDOCK:   -4.48 KCAL/MOL
REMARK 923 INTER-LIGAND FREE ENERGY PREDICTED BY IDOCK:   -4.40 KCAL/MOL
REMARK 924 INTRA-LIGAND FREE ENERGY PREDICTED BY IDOCK:   -0.08 KCAL/MOL
REMARK 927      BINDING AFFINITY PREDICTED BY RF-SCORE:    0.00 PKD
ROOT
HETATM    1  C   UNL     1     -13.472   9.786  72.034  1.00  0.00    -0.407 C  
HETATM    2  N   UNL     1     -13.193   8.375  72.327  1.00  0.00    -0.302 NA 
HETATM    3  C   UNL     1     -14.195   7.533  71.673  1.00  0.00    -0.458 C  
ENDROOT
BRANCH   2   4
HETATM    4  C   UNL     1     -11.817   8.046  71.899  1.00  0.00    -0.307 C  
BRANCH   4   5
HETATM    5  C   UNL     1     -10.900   9.268  71.698  1.00  0.00    -0.418 C  
BRANCH   5   6
HETATM    6  C   UNL     1      -9.442   8.918  71.775  1.00  0.00    -0.334 A  
HETATM    7  C   UNL     1      -8.834   8.133  72.733  1.00  0.00    -0.231 A  
HETATM    8  N   UNL     1      -7.500   8.046  72.442  1.00  0.00    -0.102 NA 
HETATM    9  C   UNL     1      -7.216   8.760  71.302  1.00  0.00    -0.095 A  
HETATM   10  H   UNL     1      -6.817   7.527  72.992  1.00  0.00     0.000 HD 
HETATM   11  C   UNL     1      -6.002   8.941  70.631  1.00  0.00    -0.035 A  
HETATM   12  C   UNL     1      -6.008   9.734  69.477  1.00  0.00    -0.037 A  
HETATM   13  C   UNL     1      -7.183  10.333  69.008  1.00  0.00    -0.080 A  
HETATM   14  C   UNL     1      -8.391  10.112  69.693  1.00  0.00    -0.174 A  
HETATM   15  C   UNL     1      -8.412   9.322  70.862  1.00  0.00    -0.203 A  
BRANCH  13  16
HETATM   16  C   UNL     1      -7.155  11.200  67.770  1.00  0.00    -0.086 C  
BRANCH  16  17
HETATM   17  C   UNL     1      -7.547  10.446  66.500  1.00  0.00    -0.118 C  
HETATM   18  C   UNL     1      -8.180   9.088  66.736  1.00  0.00    -0.115 C  
HETATM   19  O   UNL     1      -9.010   8.895  65.579  1.00  0.00    -0.190 OA 
HETATM   20  C   UNL     1      -9.270  10.127  65.048  1.00  0.00    -0.217 C  
HETATM   21  N   UNL     1      -8.567  11.088  65.730  1.00  0.00    -0.174 NA 
HETATM   22  O   UNL     1      -9.984  10.337  64.084  1.00  0.00    -0.315 OA 
ENDBRANCH  16  17
ENDBRANCH  13  16
ENDBRANCH   5   6
ENDBRANCH   4   5
ENDBRANCH   2   4
TORSDOF 5
ENDMDL
MODEL      224
REMARK 921   NORMALIZED FREE ENERGY PREDICTED BY IDOCK:   -3.11 KCAL/MOL
REMARK 922        TOTAL FREE ENERGY PREDICTED BY IDOCK:   -4.46 KCAL/MOL
REMARK 923 INTER-LIGAND FREE ENERGY PREDICTED BY IDOCK:   -4.10 KCAL/MOL
REMARK 924 INTRA-LIGAND FREE ENERGY PREDICTED BY IDOCK:   -0.35 KCAL/MOL
REMARK 927      BINDING AFFINITY PREDICTED BY RF-SCORE:    0.00 PKD
ROOT
HETATM    1  C   UNL     1      -8.721   5.163  64.376  1.00  0.00    -0.088 C  
HETATM    2  N   UNL     1      -7.912   6.140  65.112  1.00  0.00    -0.111 NA 
HETATM    3  C   UNL     1      -7.538   7.238  64.219  1.00  0.00    -0.116 C  
ENDROOT
BRANCH   2   4
HETATM    4  C   UNL     1      -8.663   6.611  66.296  1.00  0.00    -0.145 C  
BRANCH   4   5
HETATM    5  C   UNL     1      -8.174   7.955  66.868  1.00  0.00    -0.116 C  
BRANCH   5   6
HETATM    6  C   UNL     1      -9.304   8.881  67.220  1.00  0.00    -0.173 A  
HETATM    7  C   UNL     1     -10.608   8.521  67.492  1.00  0.00    -0.214 A  
HETATM    8  N   UNL     1     -11.320   9.652  67.780  1.00  0.00    -0.439 NA 
HETATM    9  C   UNL     1     -10.507  10.758  67.704  1.00  0.00    -0.214 A  
HETATM   10  H   UNL     1     -12.312   9.673  68.015  1.00  0.00     0.000 HD 
HETATM   11  C   UNL     1     -10.796  12.108  67.928  1.00  0.00    -0.254 A  
HETATM   12  C   UNL     1      -9.755  13.031  67.774  1.00  0.00    -0.218 A  
HETATM   13  C   UNL     1      -8.467  12.626  67.402  1.00  0.00    -0.186 A  
HETATM   14  C   UNL     1      -8.204  11.259  67.208  1.00  0.00    -0.140 A  
HETATM   15  C   UNL     1      -9.236  10.307  67.351  1.00  0.00    -0.155 A  
BRANCH  13  16
HETATM   16  C   UNL     1      -7.368  13.649  67.224  1.00  0.00    -0.027 C  
BRANCH  16  17
HETATM   17  C   UNL     1      -7.825  15.079  67.508  1.00  0.00    -0.182 C  
HETATM   18  C   UNL     1      -6.747  15.996  68.053  1.00  0.00    -0.127 C  
HETATM   19  O   UNL     1      -7.166  17.303  67.628  1.00  0.00    -0.157 OA 
HETATM   20  C   UNL     1      -8.004  17.139  66.560  1.00  0.00    -0.289 C  
HETATM   21  N   UNL     1      -8.233  15.804  66.345  1.00  0.00    -0.244 NA 
HETATM   22  O   UNL     1      -8.508  18.046  65.922  1.00  0.00    -0.509 OA 
ENDBRANCH  16  17
ENDBRANCH  13  16
ENDBRANCH   5   6
ENDBRANCH   4   5
ENDBRANCH   2   4
TORSDOF 5
ENDMDL
MODEL      225
REMARK 921   NORMALIZED FREE ENERGY PREDICTED BY IDOCK:   -3.11 KCAL/MOL
REMARK 922        TOTAL FREE ENERGY PREDICTED BY IDOCK:   -4.45 KCAL/MOL
REMARK 923 INTER-LIGAND FREE ENERGY PREDICTED BY IDOCK:   -4.16 KCAL/MOL
REMARK 924 INTRA-LIGAND FREE ENERGY PREDICTED BY IDOCK:   -0.30 KCAL/MOL
REMARK 927      BINDING AFFINITY PREDICTED BY RF-SCORE:    0.00 PKD
ROOT
HETATM    1  C   UNL     1      -7.814  13.561  67.395  1.00  0.00    -0.147 C  
HETATM    2  N   UNL     1      -7.157  12.272  67.641  1.00  0.00    -0.113 NA 
HETATM    3  C   UNL     1      -6.681  12.222  69.024  1.00  0.00    -0.105 C  
ENDROOT
BRANCH   2   4
HETATM    4  C   UNL     1      -8.095  11.173  67.329  1.00  0.00    -0.137 C  
BRANCH   4   5
HETATM    5  C   UNL     1      -7.531   9.762  67.581  1.00  0.00    -0.091 C  
BRANCH   5   6
HETATM    6  C   UNL     1      -8.537   8.679  67.313  1.00  0.00    -0.125 A  
HETATM    7  C   UNL     1      -8.761   8.044  66.109  1.00  0.00    -0.154 A  
HETATM    8  N   UNL     1      -9.746   7.112  66.284  1.00  0.00    -0.409 NA 
HETATM    9  C   UNL     1     -10.178   7.118  67.590  1.00  0.00    -0.198 A  
HETATM   10  H   UNL     1     -10.109   6.502  65.553  1.00  0.00     0.000 HD 
HETATM   11  C   UNL     1     -11.149   6.335  68.223  1.00  0.00    -0.364 A  
HETATM   12  C   UNL     1     -11.385   6.565  69.583  1.00  0.00    -0.443 A  
HETATM   13  C   UNL     1     -10.682   7.546  70.292  1.00  0.00    -0.247 A  
HETATM   14  C   UNL     1      -9.695   8.299  69.632  1.00  0.00    -0.173 A  
HETATM   15  C   UNL     1      -9.440   8.093  68.260  1.00  0.00    -0.148 A  
BRANCH  13  16
HETATM   16  C   UNL     1     -10.972   7.784  71.757  1.00  0.00    -0.280 C  
BRANCH  16  17
HETATM   17  C   UNL     1     -10.365   6.719  72.670  1.00  0.00    -0.201 C  
HETATM   18  C   UNL     1     -11.254   5.517  72.924  1.00  0.00    -0.305 C  
HETATM   19  O   UNL     1     -10.323   4.457  73.194  1.00  0.00    -0.152 OA 
HETATM   20  C   UNL     1      -9.123   4.814  72.645  1.00  0.00    -0.127 C  
HETATM   21  N   UNL     1      -9.201   6.085  72.136  1.00  0.00    -0.146 NA 
HETATM   22  O   UNL     1      -8.120   4.123  72.648  1.00  0.00    -0.092 OA 
ENDBRANCH  16  17
ENDBRANCH  13  16
ENDBRANCH   5   6
ENDBRANCH   4   5
ENDBRANCH   2   4
TORSDOF 5
ENDMDL
MODEL      226
REMARK 921   NORMALIZED FREE ENERGY PREDICTED BY IDOCK:   -3.08 KCAL/MOL
REMARK 922        TOTAL FREE ENERGY PREDICTED BY IDOCK:   -4.42 KCAL/MOL
REMARK 923 INTER-LIGAND FREE ENERGY PREDICTED BY IDOCK:   -3.81 KCAL/MOL
REMARK 924 INTRA-LIGAND FREE ENERGY PREDICTED BY IDOCK:   -0.62 KCAL/MOL
REMARK 927      BINDING AFFINITY PREDICTED BY RF-SCORE:    0.00 PKD
ROOT
HETATM    1  C   UNL     1     -10.120   9.449  66.128  1.00  0.00    -0.254 C  
HETATM    2  N   UNL     1      -9.738  10.812  65.740  1.00  0.00    -0.216 NA 
HETATM    3  C   UNL     1     -10.869  11.717  65.958  1.00  0.00    -0.289 C  
ENDROOT
BRANCH   2   4
HETATM    4  C   UNL     1      -8.537  11.223  66.499  1.00  0.00    -0.170 C  
BRANCH   4   5
HETATM    5  C   UNL     1      -8.828  11.761  67.913  1.00  0.00    -0.165 C  
BRANCH   5   6
HETATM    6  C   UNL     1      -8.010  11.080  68.972  1.00  0.00    -0.114 A  
HETATM    7  C   UNL     1      -6.752  11.448  69.403  1.00  0.00    -0.122 A  
HETATM    8  N   UNL     1      -6.359  10.584  70.388  1.00  0.00    -0.179 NA 
HETATM    9  C   UNL     1      -7.340   9.648  70.618  1.00  0.00    -0.096 A  
HETATM   10  H   UNL     1      -5.467  10.627  70.880  1.00  0.00     0.000 HD 
HETATM   11  C   UNL     1      -7.381   8.590  71.532  1.00  0.00    -0.112 A  
HETATM   12  C   UNL     1      -8.526   7.784  71.543  1.00  0.00    -0.129 A  
HETATM   13  C   UNL     1      -9.595   8.019  70.670  1.00  0.00    -0.172 A  
HETATM   14  C   UNL     1      -9.532   9.106  69.780  1.00  0.00    -0.191 A  
HETATM   15  C   UNL     1      -8.387   9.931  69.743  1.00  0.00    -0.196 A  
BRANCH  13  16
HETATM   16  C   UNL     1     -10.810   7.120  70.692  1.00  0.00    -0.268 C  
BRANCH  16  17
HETATM   17  C   UNL     1     -12.116   7.881  70.917  1.00  0.00    -0.165 C  
HETATM   18  C   UNL     1     -13.370   7.030  70.841  1.00  0.00     0.161 C  
HETATM   19  O   UNL     1     -14.304   7.727  71.679  1.00  0.00    -0.427 OA 
HETATM   20  C   UNL     1     -13.583   8.510  72.537  1.00  0.00    -0.213 C  
HETATM   21  N   UNL     1     -12.249   8.440  72.226  1.00  0.00    -0.372 NA 
HETATM   22  O   UNL     1     -14.059   9.203  73.419  1.00  0.00    -0.118 OA 
ENDBRANCH  16  17
ENDBRANCH  13  16
ENDBRANCH   5   6
ENDBRANCH   4   5
ENDBRANCH   2   4
TORSDOF 5
ENDMDL
MODEL      227
REMARK 921   NORMALIZED FREE ENERGY PREDICTED BY IDOCK:   -3.05 KCAL/MOL
REMARK 922        TOTAL FREE ENERGY PREDICTED BY IDOCK:   -4.38 KCAL/MOL
REMARK 923 INTER-LIGAND FREE ENERGY PREDICTED BY IDOCK:   -3.94 KCAL/MOL
REMARK 924 INTRA-LIGAND FREE ENERGY PREDICTED BY IDOCK:   -0.44 KCAL/MOL
REMARK 927      BINDING AFFINITY PREDICTED BY RF-SCORE:    0.00 PKD
ROOT
HETATM    1  C   UNL     1     -10.011   9.416  66.584  1.00  0.00    -0.258 C  
HETATM    2  N   UNL     1      -9.540  10.804  66.665  1.00  0.00    -0.174 NA 
HETATM    3  C   UNL     1     -10.376  11.550  67.607  1.00  0.00    -0.186 C  
ENDROOT
BRANCH   2   4
HETATM    4  C   UNL     1      -8.112  10.818  67.048  1.00  0.00    -0.124 C  
BRANCH   4   5
HETATM    5  C   UNL     1      -7.803  11.616  68.329  1.00  0.00    -0.136 C  
BRANCH   5   6
HETATM    6  C   UNL     1      -7.115  10.788  69.377  1.00  0.00    -0.122 A  
HETATM    7  C   UNL     1      -5.761  10.748  69.635  1.00  0.00    -0.044 A  
HETATM    8  N   UNL     1      -5.541   9.884  70.672  1.00  0.00    -0.054 NA 
HETATM    9  C   UNL     1      -6.731   9.352  71.107  1.00  0.00    -0.042 A  
HETATM   10  H   UNL     1      -4.626   9.666  71.065  1.00  0.00     0.000 HD 
HETATM   11  C   UNL     1      -6.990   8.444  72.140  1.00  0.00    -0.103 A  
HETATM   12  C   UNL     1      -8.321   8.071  72.359  1.00  0.00    -0.205 A  
HETATM   13  C   UNL     1      -9.363   8.578  71.574  1.00  0.00    -0.289 A  
HETATM   14  C   UNL     1      -9.071   9.507  70.559  1.00  0.00    -0.276 A  
HETATM   15  C   UNL     1      -7.737   9.896  70.312  1.00  0.00    -0.160 A  
BRANCH  13  16
HETATM   16  C   UNL     1     -10.789   8.141  71.822  1.00  0.00    -0.317 C  
BRANCH  16  17
HETATM   17  C   UNL     1     -11.153   6.842  71.105  1.00  0.00    -0.270 C  
HETATM   18  C   UNL     1     -11.230   6.949  69.594  1.00  0.00    -0.242 C  
HETATM   19  O   UNL     1     -10.926   5.619  69.144  1.00  0.00    -0.274 OA 
HETATM   20  C   UNL     1     -10.240   4.992  70.147  1.00  0.00    -0.259 C  
HETATM   21  N   UNL     1     -10.183   5.801  71.252  1.00  0.00    -0.207 NA 
HETATM   22  O   UNL     1      -9.785   3.864  70.083  1.00  0.00    -0.196 OA 
ENDBRANCH  16  17
ENDBRANCH  13  16
ENDBRANCH   5   6
ENDBRANCH   4   5
ENDBRANCH   2   4
TORSDOF 5
ENDMDL
MODEL      228
REMARK 921   NORMALIZED FREE ENERGY PREDICTED BY IDOCK:   -3.04 KCAL/MOL
REMARK 922        TOTAL FREE ENERGY PREDICTED BY IDOCK:   -4.36 KCAL/MOL
REMARK 923 INTER-LIGAND FREE ENERGY PREDICTED BY IDOCK:   -3.89 KCAL/MOL
REMARK 924 INTRA-LIGAND FREE ENERGY PREDICTED BY IDOCK:   -0.48 KCAL/MOL
REMARK 927      BINDING AFFINITY PREDICTED BY RF-SCORE:    0.00 PKD
ROOT
HETATM    1  C   UNL     1     -12.905  10.907  71.417  1.00  0.00    -0.449 C  
HETATM    2  N   UNL     1     -12.657   9.563  71.952  1.00  0.00    -0.386 NA 
HETATM    3  C   UNL     1     -13.932   8.925  72.282  1.00  0.00    -0.466 C  
ENDROOT
BRANCH   2   4
HETATM    4  C   UNL     1     -11.875   8.779  70.972  1.00  0.00    -0.271 C  
BRANCH   4   5
HETATM    5  C   UNL     1     -11.870   7.260  71.229  1.00  0.00    -0.340 C  
BRANCH   5   6
HETATM    6  C   UNL     1     -10.726   6.822  72.098  1.00  0.00    -0.249 A  
HETATM    7  C   UNL     1     -10.801   6.429  73.419  1.00  0.00    -0.217 A  
HETATM    8  N   UNL     1      -9.545   6.095  73.844  1.00  0.00    -0.156 NA 
HETATM    9  C   UNL     1      -8.638   6.256  72.823  1.00  0.00    -0.122 A  
HETATM   10  H   UNL     1      -9.314   5.772  74.784  1.00  0.00     0.000 HD 
HETATM   11  C   UNL     1      -7.259   6.025  72.796  1.00  0.00    -0.089 A  
HETATM   12  C   UNL     1      -6.579   6.284  71.601  1.00  0.00    -0.055 A  
HETATM   13  C   UNL     1      -7.248   6.763  70.467  1.00  0.00    -0.073 A  
HETATM   14  C   UNL     1      -8.639   6.962  70.521  1.00  0.00    -0.142 A  
HETATM   15  C   UNL     1      -9.348   6.715  71.716  1.00  0.00    -0.148 A  
BRANCH  13  16
HETATM   16  C   UNL     1      -6.483   7.051  69.195  1.00  0.00    -0.040 C  
BRANCH  16  17
HETATM   17  C   UNL     1      -6.141   8.530  69.022  1.00  0.00    -0.043 C  
HETATM   18  C   UNL     1      -7.190   9.345  68.288  1.00  0.00    -0.077 C  
HETATM   19  O   UNL     1      -7.008  10.674  68.802  1.00  0.00    -0.061 OA 
HETATM   20  C   UNL     1      -6.378  10.566  70.010  1.00  0.00    -0.117 C  
HETATM   21  N   UNL     1      -6.047   9.256  70.250  1.00  0.00    -0.039 NA 
HETATM   22  O   UNL     1      -6.109  11.500  70.744  1.00  0.00    -0.348 OA 
ENDBRANCH  16  17
ENDBRANCH  13  16
ENDBRANCH   5   6
ENDBRANCH   4   5
ENDBRANCH   2   4
TORSDOF 5
ENDMDL
MODEL      229
REMARK 921   NORMALIZED FREE ENERGY PREDICTED BY IDOCK:   -2.96 KCAL/MOL
REMARK 922        TOTAL FREE ENERGY PREDICTED BY IDOCK:   -4.26 KCAL/MOL
REMARK 923 INTER-LIGAND FREE ENERGY PREDICTED BY IDOCK:   -3.71 KCAL/MOL
REMARK 924 INTRA-LIGAND FREE ENERGY PREDICTED BY IDOCK:   -0.55 KCAL/MOL
REMARK 927      BINDING AFFINITY PREDICTED BY RF-SCORE:    0.00 PKD
ROOT
HETATM    1  C   UNL     1     -11.355  15.386  67.806  1.00  0.00    -0.306 C  
HETATM    2  N   UNL     1     -10.102  15.619  67.079  1.00  0.00    -0.248 NA 
HETATM    3  C   UNL     1     -10.384  16.345  65.840  1.00  0.00    -0.362 C  
ENDROOT
BRANCH   2   4
HETATM    4  C   UNL     1      -9.153  16.344  67.951  1.00  0.00    -0.201 C  
BRANCH   4   5
HETATM    5  C   UNL     1      -8.682  15.548  69.183  1.00  0.00    -0.247 C  
BRANCH   5   6
HETATM    6  C   UNL     1      -7.367  14.856  68.958  1.00  0.00    -0.143 A  
HETATM    7  C   UNL     1      -6.141  15.237  69.462  1.00  0.00    -0.125 A  
HETATM    8  N   UNL     1      -5.199  14.340  69.039  1.00  0.00    -0.081 NA 
HETATM    9  C   UNL     1      -5.784  13.367  68.264  1.00  0.00    -0.098 A  
HETATM   10  H   UNL     1      -4.206  14.387  69.266  1.00  0.00     0.000 HD 
HETATM   11  C   UNL     1      -5.218  12.253  67.635  1.00  0.00    -0.094 A  
HETATM   12  C   UNL     1      -6.068  11.422  66.896  1.00  0.00    -0.135 A  
HETATM   13  C   UNL     1      -7.437  11.692  66.779  1.00  0.00    -0.091 A  
HETATM   14  C   UNL     1      -7.978  12.807  67.444  1.00  0.00    -0.179 A  
HETATM   15  C   UNL     1      -7.143  13.665  68.191  1.00  0.00    -0.118 A  
BRANCH  13  16
HETATM   16  C   UNL     1      -8.326  10.786  65.958  1.00  0.00    -0.163 C  
BRANCH  16  17
HETATM   17  C   UNL     1      -9.475  10.181  66.764  1.00  0.00    -0.168 C  
HETATM   18  C   UNL     1     -10.159   8.997  66.107  1.00  0.00    -0.172 C  
HETATM   19  O   UNL     1     -10.672   8.243  67.217  1.00  0.00    -0.289 OA 
HETATM   20  C   UNL     1      -9.948   8.593  68.323  1.00  0.00    -0.180 C  
HETATM   21  N   UNL     1      -9.076   9.605  68.010  1.00  0.00    -0.126 NA 
HETATM   22  O   UNL     1     -10.087   8.110  69.432  1.00  0.00    -0.185 OA 
ENDBRANCH  16  17
ENDBRANCH  13  16
ENDBRANCH   5   6
ENDBRANCH   4   5
ENDBRANCH   2   4
TORSDOF 5
ENDMDL
MODEL      230
REMARK 921   NORMALIZED FREE ENERGY PREDICTED BY IDOCK:   -2.96 KCAL/MOL
REMARK 922        TOTAL FREE ENERGY PREDICTED BY IDOCK:   -4.26 KCAL/MOL
REMARK 923 INTER-LIGAND FREE ENERGY PREDICTED BY IDOCK:   -4.17 KCAL/MOL
REMARK 924 INTRA-LIGAND FREE ENERGY PREDICTED BY IDOCK:   -0.09 KCAL/MOL
REMARK 927      BINDING AFFINITY PREDICTED BY RF-SCORE:    0.00 PKD
ROOT
HETATM    1  C   UNL     1      -9.136   9.015  67.048  1.00  0.00    -0.130 C  
HETATM    2  N   UNL     1      -8.293  10.213  66.963  1.00  0.00    -0.125 NA 
HETATM    3  C   UNL     1      -9.040  11.372  67.453  1.00  0.00    -0.160 C  
ENDROOT
BRANCH   2   4
HETATM    4  C   UNL     1      -7.042   9.990  67.719  1.00  0.00    -0.086 C  
BRANCH   4   5
HETATM    5  C   UNL     1      -6.934  10.798  69.026  1.00  0.00    -0.085 C  
BRANCH   5   6
HETATM    6  C   UNL     1      -7.136   9.952  70.250  1.00  0.00    -0.155 A  
HETATM    7  C   UNL     1      -6.166   9.564  71.152  1.00  0.00    -0.068 A  
HETATM    8  N   UNL     1      -6.757   8.814  72.131  1.00  0.00    -0.224 NA 
HETATM    9  C   UNL     1      -8.106   8.701  71.894  1.00  0.00    -0.088 A  
HETATM   10  H   UNL     1      -6.267   8.399  72.923  1.00  0.00     0.000 HD 
HETATM   11  C   UNL     1      -9.100   8.046  72.628  1.00  0.00    -0.290 A  
HETATM   12  C   UNL     1     -10.410   8.096  72.139  1.00  0.00    -0.342 A  
HETATM   13  C   UNL     1     -10.724   8.771  70.954  1.00  0.00    -0.282 A  
HETATM   14  C   UNL     1      -9.706   9.440  70.252  1.00  0.00    -0.292 A  
HETATM   15  C   UNL     1      -8.374   9.401  70.719  1.00  0.00    -0.180 A  
BRANCH  13  16
HETATM   16  C   UNL     1     -12.146   8.792  70.440  1.00  0.00     0.219 C  
BRANCH  16  17
HETATM   17  C   UNL     1     -12.812  10.161  70.571  1.00  0.00    -0.180 C  
HETATM   18  C   UNL     1     -12.924  10.682  71.992  1.00  0.00    -0.361 C  
HETATM   19  O   UNL     1     -12.934  12.109  71.830  1.00  0.00    -0.397 OA 
HETATM   20  C   UNL     1     -12.362  12.391  70.621  1.00  0.00    -0.279 C  
HETATM   21  N   UNL     1     -12.086  11.226  69.951  1.00  0.00    -0.332 NA 
HETATM   22  O   UNL     1     -12.166  13.510  70.184  1.00  0.00    -0.332 OA 
ENDBRANCH  16  17
ENDBRANCH  13  16
ENDBRANCH   5   6
ENDBRANCH   4   5
ENDBRANCH   2   4
TORSDOF 5
ENDMDL
MODEL      231
REMARK 921   NORMALIZED FREE ENERGY PREDICTED BY IDOCK:   -2.91 KCAL/MOL
REMARK 922        TOTAL FREE ENERGY PREDICTED BY IDOCK:   -4.20 KCAL/MOL
REMARK 923 INTER-LIGAND FREE ENERGY PREDICTED BY IDOCK:   -3.86 KCAL/MOL
REMARK 924 INTRA-LIGAND FREE ENERGY PREDICTED BY IDOCK:   -0.34 KCAL/MOL
REMARK 927      BINDING AFFINITY PREDICTED BY RF-SCORE:    0.00 PKD
ROOT
HETATM    1  C   UNL     1     -12.905  10.907  71.417  1.00  0.00    -0.449 C  
HETATM    2  N   UNL     1     -12.657   9.563  71.952  1.00  0.00    -0.386 NA 
HETATM    3  C   UNL     1     -13.932   8.925  72.282  1.00  0.00    -0.466 C  
ENDROOT
BRANCH   2   4
HETATM    4  C   UNL     1     -11.875   8.779  70.972  1.00  0.00    -0.271 C  
BRANCH   4   5
HETATM    5  C   UNL     1     -11.870   7.260  71.229  1.00  0.00    -0.340 C  
BRANCH   5   6
HETATM    6  C   UNL     1     -10.726   6.822  72.098  1.00  0.00    -0.249 A  
HETATM    7  C   UNL     1     -10.461   7.246  73.384  1.00  0.00    -0.377 A  
HETATM    8  N   UNL     1      -9.341   6.602  73.832  1.00  0.00    -0.165 NA 
HETATM    9  C   UNL     1      -8.861   5.754  72.863  1.00  0.00    -0.124 A  
HETATM   10  H   UNL     1      -8.923   6.733  74.753  1.00  0.00     0.000 HD 
HETATM   11  C   UNL     1      -7.758   4.893  72.882  1.00  0.00    -0.093 A  
HETATM   12  C   UNL     1      -7.502   4.137  71.733  1.00  0.00    -0.064 A  
HETATM   13  C   UNL     1      -8.313   4.237  70.596  1.00  0.00    -0.084 A  
HETATM   14  C   UNL     1      -9.429   5.093  70.618  1.00  0.00    -0.229 A  
HETATM   15  C   UNL     1      -9.706   5.872  71.762  1.00  0.00    -0.178 A  
BRANCH  13  16
HETATM   16  C   UNL     1      -8.001   3.421  69.362  1.00  0.00    -0.057 C  
BRANCH  16  17
HETATM   17  C   UNL     1      -7.243   4.212  68.295  1.00  0.00    -0.059 C  
HETATM   18  C   UNL     1      -8.124   4.937  67.295  1.00  0.00    -0.106 C  
HETATM   19  O   UNL     1      -7.315   6.047  66.874  1.00  0.00    -0.073 OA 
HETATM   20  C   UNL     1      -6.379   6.267  67.845  1.00  0.00    -0.033 C  
HETATM   21  N   UNL     1      -6.470   5.298  68.812  1.00  0.00    -0.038 NA 
HETATM   22  O   UNL     1      -5.557   7.165  67.833  1.00  0.00    -0.019 OA 
ENDBRANCH  16  17
ENDBRANCH  13  16
ENDBRANCH   5   6
ENDBRANCH   4   5
ENDBRANCH   2   4
TORSDOF 5
ENDMDL
MODEL      232
REMARK 921   NORMALIZED FREE ENERGY PREDICTED BY IDOCK:   -2.83 KCAL/MOL
REMARK 922        TOTAL FREE ENERGY PREDICTED BY IDOCK:   -4.09 KCAL/MOL
REMARK 923 INTER-LIGAND FREE ENERGY PREDICTED BY IDOCK:   -3.62 KCAL/MOL
REMARK 924 INTRA-LIGAND FREE ENERGY PREDICTED BY IDOCK:   -0.48 KCAL/MOL
REMARK 927      BINDING AFFINITY PREDICTED BY RF-SCORE:    0.00 PKD
ROOT
HETATM    1  C   UNL     1      -5.764   9.548  71.269  1.00  0.00    -0.074 C  
HETATM    2  N   UNL     1      -6.384  10.252  70.140  1.00  0.00    -0.100 NA 
HETATM    3  C   UNL     1      -5.986  11.660  70.164  1.00  0.00    -0.161 C  
ENDROOT
BRANCH   2   4
HETATM    4  C   UNL     1      -6.010   9.584  68.876  1.00  0.00    -0.042 C  
BRANCH   4   5
HETATM    5  C   UNL     1      -6.227   8.059  68.871  1.00  0.00    -0.040 C  
BRANCH   5   6
HETATM    6  C   UNL     1      -7.508   7.657  68.197  1.00  0.00    -0.108 A  
HETATM    7  C   UNL     1      -7.749   7.632  66.839  1.00  0.00    -0.103 A  
HETATM    8  N   UNL     1      -9.029   7.196  66.633  1.00  0.00    -0.140 NA 
HETATM    9  C   UNL     1      -9.639   6.928  67.836  1.00  0.00    -0.118 A  
HETATM   10  H   UNL     1      -9.467   7.085  65.719  1.00  0.00     0.000 HD 
HETATM   11  C   UNL     1     -10.926   6.454  68.109  1.00  0.00    -0.393 A  
HETATM   12  C   UNL     1     -11.283   6.275  69.451  1.00  0.00    -0.489 A  
HETATM   13  C   UNL     1     -10.390   6.564  70.490  1.00  0.00    -0.240 A  
HETATM   14  C   UNL     1      -9.095   7.016  70.180  1.00  0.00    -0.149 A  
HETATM   15  C   UNL     1      -8.711   7.211  68.836  1.00  0.00    -0.128 A  
BRANCH  13  16
HETATM   16  C   UNL     1     -10.811   6.379  71.931  1.00  0.00    -0.279 C  
BRANCH  16  17
HETATM   17  C   UNL     1     -10.154   5.171  72.597  1.00  0.00    -0.177 C  
HETATM   18  C   UNL     1     -10.885   4.640  73.816  1.00  0.00    -0.306 C  
HETATM   19  O   UNL     1     -10.522   3.251  73.851  1.00  0.00    -0.147 OA 
HETATM   20  C   UNL     1     -10.129   2.896  72.591  1.00  0.00    -0.159 C  
HETATM   21  N   UNL     1     -10.113   4.000  71.777  1.00  0.00    -0.164 NA 
HETATM   22  O   UNL     1      -9.799   1.774  72.251  1.00  0.00    -0.098 OA 
ENDBRANCH  16  17
ENDBRANCH  13  16
ENDBRANCH   5   6
ENDBRANCH   4   5
ENDBRANCH   2   4
TORSDOF 5
ENDMDL
MODEL      233
REMARK 921   NORMALIZED FREE ENERGY PREDICTED BY IDOCK:   -2.82 KCAL/MOL
REMARK 922        TOTAL FREE ENERGY PREDICTED BY IDOCK:   -4.09 KCAL/MOL
REMARK 923 INTER-LIGAND FREE ENERGY PREDICTED BY IDOCK:   -3.75 KCAL/MOL
REMARK 924 INTRA-LIGAND FREE ENERGY PREDICTED BY IDOCK:   -0.34 KCAL/MOL
REMARK 927      BINDING AFFINITY PREDICTED BY RF-SCORE:    0.00 PKD
ROOT
HETATM    1  C   UNL     1     -13.216  10.831  71.575  1.00  0.00    -0.334 C  
HETATM    2  N   UNL     1     -13.147   9.389  71.841  1.00  0.00    -0.390 NA 
HETATM    3  C   UNL     1     -14.314   8.728  71.255  1.00  0.00    -0.104 C  
ENDROOT
BRANCH   2   4
HETATM    4  C   UNL     1     -11.874   8.852  71.315  1.00  0.00    -0.310 C  
BRANCH   4   5
HETATM    5  C   UNL     1     -11.829   7.316  71.200  1.00  0.00    -0.345 C  
BRANCH   5   6
HETATM    6  C   UNL     1     -10.446   6.795  70.933  1.00  0.00    -0.239 A  
HETATM    7  C   UNL     1      -9.719   5.942  71.737  1.00  0.00    -0.155 A  
HETATM    8  N   UNL     1      -8.516   5.696  71.136  1.00  0.00    -0.125 NA 
HETATM    9  C   UNL     1      -8.435   6.372  69.941  1.00  0.00    -0.131 A  
HETATM   10  H   UNL     1      -7.784   5.098  71.518  1.00  0.00     0.000 HD 
HETATM   11  C   UNL     1      -7.409   6.407  68.991  1.00  0.00    -0.089 A  
HETATM   12  C   UNL     1      -7.603   7.196  67.852  1.00  0.00    -0.111 A  
HETATM   13  C   UNL     1      -8.779   7.932  67.664  1.00  0.00    -0.126 A  
HETATM   14  C   UNL     1      -9.801   7.856  68.626  1.00  0.00    -0.177 A  
HETATM   15  C   UNL     1      -9.629   7.073  69.787  1.00  0.00    -0.151 A  
BRANCH  13  16
HETATM   16  C   UNL     1      -8.952   8.791  66.431  1.00  0.00    -0.194 C  
BRANCH  16  17
HETATM   17  C   UNL     1      -8.558  10.250  66.655  1.00  0.00    -0.127 C  
HETATM   18  C   UNL     1      -9.655  11.124  67.234  1.00  0.00    -0.165 C  
HETATM   19  O   UNL     1      -8.936  12.151  67.935  1.00  0.00    -0.169 OA 
HETATM   20  C   UNL     1      -7.687  11.667  68.207  1.00  0.00    -0.128 C  
HETATM   21  N   UNL     1      -7.526  10.434  67.628  1.00  0.00    -0.088 NA 
HETATM   22  O   UNL     1      -6.828  12.261  68.834  1.00  0.00    -0.088 OA 
ENDBRANCH  16  17
ENDBRANCH  13  16
ENDBRANCH   5   6
ENDBRANCH   4   5
ENDBRANCH   2   4
TORSDOF 5
ENDMDL
MODEL      234
REMARK 921   NORMALIZED FREE ENERGY PREDICTED BY IDOCK:   -2.81 KCAL/MOL
REMARK 922        TOTAL FREE ENERGY PREDICTED BY IDOCK:   -4.07 KCAL/MOL
REMARK 923 INTER-LIGAND FREE ENERGY PREDICTED BY IDOCK:   -4.03 KCAL/MOL
REMARK 924 INTRA-LIGAND FREE ENERGY PREDICTED BY IDOCK:   -0.05 KCAL/MOL
REMARK 927      BINDING AFFINITY PREDICTED BY RF-SCORE:    0.00 PKD
ROOT
HETATM    1  C   UNL     1      -5.947   9.541  70.119  1.00  0.00    -0.047 C  
HETATM    2  N   UNL     1      -6.133   8.454  69.151  1.00  0.00    -0.042 NA 
HETATM    3  C   UNL     1      -6.355   7.196  69.866  1.00  0.00    -0.035 C  
ENDROOT
BRANCH   2   4
HETATM    4  C   UNL     1      -7.250   8.787  68.243  1.00  0.00    -0.082 C  
BRANCH   4   5
HETATM    5  C   UNL     1      -6.898   8.717  66.745  1.00  0.00    -0.069 C  
BRANCH   5   6
HETATM    6  C   UNL     1      -7.898   9.428  65.879  1.00  0.00    -0.099 A  
HETATM    7  C   UNL     1      -8.236   9.108  64.580  1.00  0.00    -0.152 A  
HETATM    8  N   UNL     1      -9.193   9.986  64.151  1.00  0.00    -0.256 NA 
HETATM    9  C   UNL     1      -9.496  10.882  65.148  1.00  0.00    -0.227 A  
HETATM   10  H   UNL     1      -9.619   9.977  63.225  1.00  0.00     0.000 HD 
HETATM   11  C   UNL     1     -10.415  11.938  65.164  1.00  0.00    -0.330 A  
HETATM   12  C   UNL     1     -10.511  12.699  66.334  1.00  0.00    -0.267 A  
HETATM   13  C   UNL     1      -9.717  12.424  67.454  1.00  0.00    -0.193 A  
HETATM   14  C   UNL     1      -8.820  11.341  67.413  1.00  0.00    -0.145 A  
HETATM   15  C   UNL     1      -8.698  10.561  66.244  1.00  0.00    -0.159 A  
BRANCH  13  16
HETATM   16  C   UNL     1      -9.830  13.275  68.698  1.00  0.00    -0.096 C  
BRANCH  16  17
HETATM   17  C   UNL     1     -11.275  13.503  69.140  1.00  0.00    -0.260 C  
HETATM   18  C   UNL     1     -11.777  12.536  70.196  1.00  0.00    -0.175 C  
HETATM   19  O   UNL     1     -12.790  13.285  70.887  1.00  0.00    -0.270 OA 
HETATM   20  C   UNL     1     -12.541  14.611  70.671  1.00  0.00    -0.357 C  
HETATM   21  N   UNL     1     -11.496  14.755  69.795  1.00  0.00    -0.277 NA 
HETATM   22  O   UNL     1     -13.181  15.530  71.150  1.00  0.00    -0.491 OA 
ENDBRANCH  16  17
ENDBRANCH  13  16
ENDBRANCH   5   6
ENDBRANCH   4   5
ENDBRANCH   2   4
TORSDOF 5
ENDMDL
MODEL      235
REMARK 921   NORMALIZED FREE ENERGY PREDICTED BY IDOCK:   -2.81 KCAL/MOL
REMARK 922        TOTAL FREE ENERGY PREDICTED BY IDOCK:   -4.07 KCAL/MOL
REMARK 923 INTER-LIGAND FREE ENERGY PREDICTED BY IDOCK:   -4.63 KCAL/MOL
REMARK 924 INTRA-LIGAND FREE ENERGY PREDICTED BY IDOCK:    0.57 KCAL/MOL
REMARK 927      BINDING AFFINITY PREDICTED BY RF-SCORE:    0.00 PKD
ROOT
HETATM    1  C   UNL     1      -7.026  10.955  69.295  1.00  0.00    -0.112 C  
HETATM    2  N   UNL     1      -8.221  10.562  68.539  1.00  0.00    -0.117 NA 
HETATM    3  C   UNL     1      -9.060   9.694  69.367  1.00  0.00    -0.188 C  
ENDROOT
BRANCH   2   4
HETATM    4  C   UNL     1      -8.940  11.773  68.088  1.00  0.00    -0.181 C  
BRANCH   4   5
HETATM    5  C   UNL     1      -9.342  11.760  66.601  1.00  0.00    -0.205 C  
BRANCH   5   6
HETATM    6  C   UNL     1     -10.267  12.887  66.240  1.00  0.00    -0.285 A  
HETATM    7  C   UNL     1     -11.605  12.782  65.920  1.00  0.00    -0.382 A  
HETATM    8  N   UNL     1     -12.092  14.035  65.669  1.00  0.00    -0.394 NA 
HETATM    9  C   UNL     1     -11.096  14.970  65.820  1.00  0.00    -0.346 A  
HETATM   10  H   UNL     1     -13.054  14.245  65.406  1.00  0.00     0.000 HD 
HETATM   11  C   UNL     1     -11.135  16.362  65.680  1.00  0.00     0.055 A  
HETATM   12  C   UNL     1      -9.949  17.072  65.896  1.00  0.00    -0.239 A  
HETATM   13  C   UNL     1      -8.758  16.420  66.236  1.00  0.00    -0.369 A  
HETATM   14  C   UNL     1      -8.757  15.022  66.394  1.00  0.00    -0.169 A  
HETATM   15  C   UNL     1      -9.938  14.281  66.175  1.00  0.00    -0.330 A  
BRANCH  13  16
HETATM   16  C   UNL     1      -7.487  17.212  66.446  1.00  0.00    -0.341 C  
BRANCH  16  17
HETATM   17  C   UNL     1      -6.625  16.675  67.588  1.00  0.00    -0.149 C  
HETATM   18  C   UNL     1      -6.443  17.631  68.752  1.00  0.00    -0.213 C  
HETATM   19  O   UNL     1      -6.221  16.761  69.873  1.00  0.00    -0.224 OA 
HETATM   20  C   UNL     1      -6.739  15.537  69.555  1.00  0.00    -0.179 C  
HETATM   21  N   UNL     1      -7.182  15.540  68.256  1.00  0.00    -0.112 NA 
HETATM   22  O   UNL     1      -6.764  14.573  70.298  1.00  0.00    -0.156 OA 
ENDBRANCH  16  17
ENDBRANCH  13  16
ENDBRANCH   5   6
ENDBRANCH   4   5
ENDBRANCH   2   4
TORSDOF 5
ENDMDL
MODEL      236
REMARK 921   NORMALIZED FREE ENERGY PREDICTED BY IDOCK:   -2.76 KCAL/MOL
REMARK 922        TOTAL FREE ENERGY PREDICTED BY IDOCK:   -4.00 KCAL/MOL
REMARK 923 INTER-LIGAND FREE ENERGY PREDICTED BY IDOCK:   -3.58 KCAL/MOL
REMARK 924 INTRA-LIGAND FREE ENERGY PREDICTED BY IDOCK:   -0.42 KCAL/MOL
REMARK 927      BINDING AFFINITY PREDICTED BY RF-SCORE:    0.00 PKD
ROOT
HETATM    1  C   UNL     1      -9.768   8.531  66.478  1.00  0.00    -0.260 C  
HETATM    2  N   UNL     1      -8.577   8.689  65.634  1.00  0.00    -0.159 NA 
HETATM    3  C   UNL     1      -7.409   8.940  66.480  1.00  0.00    -0.085 C  
ENDROOT
BRANCH   2   4
HETATM    4  C   UNL     1      -8.410   7.489  64.788  1.00  0.00    -0.006 C  
BRANCH   4   5
HETATM    5  C   UNL     1      -7.486   6.410  65.385  1.00  0.00    -0.084 C  
BRANCH   5   6
HETATM    6  C   UNL     1      -8.246   5.277  66.012  1.00  0.00    -0.115 A  
HETATM    7  C   UNL     1      -8.744   4.164  65.367  1.00  0.00    -0.121 A  
HETATM    8  N   UNL     1      -9.359   3.364  66.290  1.00  0.00    -0.254 NA 
HETATM    9  C   UNL     1      -9.273   3.930  67.540  1.00  0.00    -0.172 A  
HETATM   10  H   UNL     1      -9.815   2.477  66.081  1.00  0.00     0.000 HD 
HETATM   11  C   UNL     1      -9.742   3.467  68.774  1.00  0.00     0.003 A  
HETATM   12  C   UNL     1      -9.510   4.266  69.900  1.00  0.00    -0.260 A  
HETATM   13  C   UNL     1      -8.838   5.490  69.803  1.00  0.00    -0.129 A  
HETATM   14  C   UNL     1      -8.359   5.915  68.551  1.00  0.00    -0.109 A  
HETATM   15  C   UNL     1      -8.584   5.132  67.398  1.00  0.00    -0.104 A  
BRANCH  13  16
HETATM   16  C   UNL     1      -8.619   6.341  71.033  1.00  0.00    -0.132 C  
BRANCH  16  17
HETATM   17  C   UNL     1      -9.834   7.193  71.399  1.00  0.00    -0.176 C  
HETATM   18  C   UNL     1     -10.166   8.288  70.403  1.00  0.00    -0.201 C  
HETATM   19  O   UNL     1     -11.580   8.478  70.566  1.00  0.00    -0.240 OA 
HETATM   20  C   UNL     1     -12.088   7.336  71.122  1.00  0.00    -0.340 C  
HETATM   21  N   UNL     1     -11.068   6.470  71.425  1.00  0.00    -0.257 NA 
HETATM   22  O   UNL     1     -13.266   7.136  71.354  1.00  0.00    -0.385 OA 
ENDBRANCH  16  17
ENDBRANCH  13  16
ENDBRANCH   5   6
ENDBRANCH   4   5
ENDBRANCH   2   4
TORSDOF 5
ENDMDL
MODEL      237
REMARK 921   NORMALIZED FREE ENERGY PREDICTED BY IDOCK:   -2.72 KCAL/MOL
REMARK 922        TOTAL FREE ENERGY PREDICTED BY IDOCK:   -3.96 KCAL/MOL
REMARK 923 INTER-LIGAND FREE ENERGY PREDICTED BY IDOCK:   -3.79 KCAL/MOL
REMARK 924 INTRA-LIGAND FREE ENERGY PREDICTED BY IDOCK:   -0.16 KCAL/MOL
REMARK 927      BINDING AFFINITY PREDICTED BY RF-SCORE:    0.00 PKD
ROOT
HETATM    1  C   UNL     1      -9.928   4.150  65.390  1.00  0.00    -0.205 C  
HETATM    2  N   UNL     1      -8.730   4.448  66.184  1.00  0.00    -0.113 NA 
HETATM    3  C   UNL     1      -8.444   5.882  66.117  1.00  0.00    -0.132 C  
ENDROOT
BRANCH   2   4
HETATM    4  C   UNL     1      -8.929   3.979  67.572  1.00  0.00    -0.129 C  
BRANCH   4   5
HETATM    5  C   UNL     1      -8.363   4.921  68.651  1.00  0.00    -0.083 C  
BRANCH   5   6
HETATM    6  C   UNL     1      -9.409   5.827  69.237  1.00  0.00    -0.148 A  
HETATM    7  C   UNL     1     -10.604   5.442  69.807  1.00  0.00    -0.277 A  
HETATM    8  N   UNL     1     -11.264   6.561  70.232  1.00  0.00    -0.343 NA 
HETATM    9  C   UNL     1     -10.522   7.685  69.955  1.00  0.00    -0.231 A  
HETATM   10  H   UNL     1     -12.176   6.563  70.688  1.00  0.00     0.000 HD 
HETATM   11  C   UNL     1     -10.791   9.032  70.217  1.00  0.00    -0.269 A  
HETATM   12  C   UNL     1      -9.840   9.976  69.814  1.00  0.00    -0.270 A  
HETATM   13  C   UNL     1      -8.660   9.595  69.163  1.00  0.00    -0.146 A  
HETATM   14  C   UNL     1      -8.409   8.230  68.936  1.00  0.00    -0.127 A  
HETATM   15  C   UNL     1      -9.353   7.257  69.327  1.00  0.00    -0.154 A  
BRANCH  13  16
HETATM   16  C   UNL     1      -7.660  10.639  68.722  1.00  0.00    -0.109 C  
BRANCH  16  17
HETATM   17  C   UNL     1      -7.926  11.168  67.313  1.00  0.00    -0.137 C  
HETATM   18  C   UNL     1      -7.261  10.379  66.201  1.00  0.00    -0.131 C  
HETATM   19  O   UNL     1      -8.118  10.602  65.069  1.00  0.00    -0.132 OA 
HETATM   20  C   UNL     1      -9.345  10.967  65.547  1.00  0.00    -0.206 C  
HETATM   21  N   UNL     1      -9.296  11.098  66.912  1.00  0.00    -0.173 NA 
HETATM   22  O   UNL     1     -10.326  11.187  64.860  1.00  0.00    -0.279 OA 
ENDBRANCH  16  17
ENDBRANCH  13  16
ENDBRANCH   5   6
ENDBRANCH   4   5
ENDBRANCH   2   4
TORSDOF 5
ENDMDL
MODEL      238
REMARK 921   NORMALIZED FREE ENERGY PREDICTED BY IDOCK:   -2.70 KCAL/MOL
REMARK 922        TOTAL FREE ENERGY PREDICTED BY IDOCK:   -3.93 KCAL/MOL
REMARK 923 INTER-LIGAND FREE ENERGY PREDICTED BY IDOCK:   -3.48 KCAL/MOL
REMARK 924 INTRA-LIGAND FREE ENERGY PREDICTED BY IDOCK:   -0.46 KCAL/MOL
REMARK 927      BINDING AFFINITY PREDICTED BY RF-SCORE:    0.00 PKD
ROOT
HETATM    1  C   UNL     1      -8.045   5.262  65.405  1.00  0.00    -0.121 C  
HETATM    2  N   UNL     1      -6.755   5.920  65.644  1.00  0.00    -0.047 NA 
HETATM    3  C   UNL     1      -5.759   5.400  64.705  1.00  0.00    -0.017 C  
ENDROOT
BRANCH   2   4
HETATM    4  C   UNL     1      -6.920   7.385  65.533  1.00  0.00    -0.060 C  
BRANCH   4   5
HETATM    5  C   UNL     1      -6.341   8.184  66.716  1.00  0.00    -0.055 C  
BRANCH   5   6
HETATM    6  C   UNL     1      -7.142   8.020  67.975  1.00  0.00    -0.086 A  
HETATM    7  C   UNL     1      -6.909   7.111  68.986  1.00  0.00    -0.061 A  
HETATM    8  N   UNL     1      -7.851   7.291  69.960  1.00  0.00    -0.109 NA 
HETATM    9  C   UNL     1      -8.705   8.311  69.612  1.00  0.00    -0.138 A  
HETATM   10  H   UNL     1      -7.911   6.748  70.821  1.00  0.00     0.000 HD 
HETATM   11  C   UNL     1      -9.798   8.847  70.300  1.00  0.00    -0.211 A  
HETATM   12  C   UNL     1     -10.498   9.896  69.693  1.00  0.00    -0.273 A  
HETATM   13  C   UNL     1     -10.128  10.394  68.438  1.00  0.00    -0.181 A  
HETATM   14  C   UNL     1      -9.009   9.849  67.783  1.00  0.00    -0.134 A  
HETATM   15  C   UNL     1      -8.289   8.786  68.370  1.00  0.00    -0.126 A  
BRANCH  13  16
HETATM   16  C   UNL     1     -10.915  11.516  67.799  1.00  0.00    -0.291 C  
BRANCH  16  17
HETATM   17  C   UNL     1     -10.257  12.885  67.970  1.00  0.00    -0.229 C  
HETATM   18  C   UNL     1      -9.447  13.356  66.777  1.00  0.00    -0.261 C  
HETATM   19  O   UNL     1      -9.503  14.787  66.873  1.00  0.00    -0.220 OA 
HETATM   20  C   UNL     1     -10.598  15.107  67.626  1.00  0.00    -0.263 C  
HETATM   21  N   UNL     1     -11.183  13.965  68.110  1.00  0.00    -0.256 NA 
HETATM   22  O   UNL     1     -10.973  16.240  67.870  1.00  0.00    -0.338 OA 
ENDBRANCH  16  17
ENDBRANCH  13  16
ENDBRANCH   5   6
ENDBRANCH   4   5
ENDBRANCH   2   4
TORSDOF 5
ENDMDL
MODEL      239
REMARK 921   NORMALIZED FREE ENERGY PREDICTED BY IDOCK:   -2.67 KCAL/MOL
REMARK 922        TOTAL FREE ENERGY PREDICTED BY IDOCK:   -3.89 KCAL/MOL
REMARK 923 INTER-LIGAND FREE ENERGY PREDICTED BY IDOCK:   -3.66 KCAL/MOL
REMARK 924 INTRA-LIGAND FREE ENERGY PREDICTED BY IDOCK:   -0.23 KCAL/MOL
REMARK 927      BINDING AFFINITY PREDICTED BY RF-SCORE:    0.00 PKD
ROOT
HETATM    1  C   UNL     1      -5.369   9.587  68.665  1.00  0.00    -0.037 C  
HETATM    2  N   UNL     1      -6.643  10.231  69.006  1.00  0.00    -0.052 NA 
HETATM    3  C   UNL     1      -6.875  10.123  70.447  1.00  0.00    -0.124 C  
ENDROOT
BRANCH   2   4
HETATM    4  C   UNL     1      -6.626  11.635  68.543  1.00  0.00    -0.061 C  
BRANCH   4   5
HETATM    5  C   UNL     1      -7.821  12.480  69.023  1.00  0.00     0.237 C  
BRANCH   5   6
HETATM    6  C   UNL     1      -8.860  12.673  67.956  1.00  0.00    -0.195 A  
HETATM    7  C   UNL     1      -9.457  11.685  67.200  1.00  0.00    -0.176 A  
HETATM    8  N   UNL     1     -10.356  12.269  66.352  1.00  0.00    -0.222 NA 
HETATM    9  C   UNL     1     -10.367  13.632  66.536  1.00  0.00    -0.282 A  
HETATM   10  H   UNL     1     -10.935  11.767  65.680  1.00  0.00     0.000 HD 
HETATM   11  C   UNL     1     -11.129  14.621  65.906  1.00  0.00    -0.338 A  
HETATM   12  C   UNL     1     -10.924  15.949  66.299  1.00  0.00    -0.112 A  
HETATM   13  C   UNL     1      -9.987  16.284  67.284  1.00  0.00    -0.250 A  
HETATM   14  C   UNL     1      -9.254  15.263  67.914  1.00  0.00    -0.184 A  
HETATM   15  C   UNL     1      -9.436  13.916  67.533  1.00  0.00    -0.216 A  
BRANCH  13  16
HETATM   16  C   UNL     1      -9.774  17.730  67.674  1.00  0.00    -0.282 C  
BRANCH  16  17
HETATM   17  C   UNL     1      -8.414  18.275  67.239  1.00  0.00    -0.250 C  
HETATM   18  C   UNL     1      -8.259  19.779  67.374  1.00  0.00    -0.307 C  
HETATM   19  O   UNL     1      -6.846  19.958  67.557  1.00  0.00    -0.219 OA 
HETATM   20  C   UNL     1      -6.337  18.776  68.018  1.00  0.00    -0.209 C  
HETATM   21  N   UNL     1      -7.319  17.819  68.037  1.00  0.00    -0.214 NA 
HETATM   22  O   UNL     1      -5.173  18.588  68.325  1.00  0.00    -0.169 OA 
ENDBRANCH  16  17
ENDBRANCH  13  16
ENDBRANCH   5   6
ENDBRANCH   4   5
ENDBRANCH   2   4
TORSDOF 5
ENDMDL
MODEL      240
REMARK 921   NORMALIZED FREE ENERGY PREDICTED BY IDOCK:   -2.56 KCAL/MOL
REMARK 922        TOTAL FREE ENERGY PREDICTED BY IDOCK:   -3.74 KCAL/MOL
REMARK 923 INTER-LIGAND FREE ENERGY PREDICTED BY IDOCK:   -4.72 KCAL/MOL
REMARK 924 INTRA-LIGAND FREE ENERGY PREDICTED BY IDOCK:    0.98 KCAL/MOL
REMARK 927      BINDING AFFINITY PREDICTED BY RF-SCORE:    0.00 PKD
ROOT
HETATM    1  C   UNL     1      -9.281   4.681  65.171  1.00  0.00    -0.156 C  
HETATM    2  N   UNL     1      -8.179   5.417  65.802  1.00  0.00    -0.117 NA 
HETATM    3  C   UNL     1      -8.055   6.737  65.182  1.00  0.00    -0.132 C  
ENDROOT
BRANCH   2   4
HETATM    4  C   UNL     1      -8.413   5.500  67.260  1.00  0.00    -0.110 C  
BRANCH   4   5
HETATM    5  C   UNL     1      -7.995   6.839  67.897  1.00  0.00    -0.114 C  
BRANCH   5   6
HETATM    6  C   UNL     1      -9.148   7.567  68.527  1.00  0.00    -0.134 A  
HETATM    7  C   UNL     1     -10.014   7.069  69.479  1.00  0.00    -0.162 A  
HETATM    8  N   UNL     1     -10.913   8.047  69.803  1.00  0.00    -0.397 NA 
HETATM    9  C   UNL     1     -10.654   9.188  69.081  1.00  0.00    -0.208 A  
HETATM   10  H   UNL     1     -11.667   7.944  70.481  1.00  0.00     0.000 HD 
HETATM   11  C   UNL     1     -11.299  10.430  69.093  1.00  0.00    -0.286 A  
HETATM   12  C   UNL     1     -10.813  11.424  68.237  1.00  0.00    -0.253 A  
HETATM   13  C   UNL     1      -9.722  11.192  67.391  1.00  0.00    -0.191 A  
HETATM   14  C   UNL     1      -9.081   9.941  67.420  1.00  0.00    -0.147 A  
HETATM   15  C   UNL     1      -9.554   8.918  68.269  1.00  0.00    -0.159 A  
BRANCH  13  16
HETATM   16  C   UNL     1      -9.231  12.280  66.463  1.00  0.00    -0.219 C  
BRANCH  16  17
HETATM   17  C   UNL     1     -10.077  13.551  66.527  1.00  0.00    -0.282 C  
HETATM   18  C   UNL     1     -11.467  13.422  65.933  1.00  0.00    -0.321 C  
HETATM   19  O   UNL     1     -12.235  14.400  66.652  1.00  0.00    -0.424 OA 
HETATM   20  C   UNL     1     -11.583  14.654  67.826  1.00  0.00    -0.359 C  
HETATM   21  N   UNL     1     -10.390  13.979  67.855  1.00  0.00    -0.236 NA 
HETATM   22  O   UNL     1     -11.983  15.403  68.700  1.00  0.00    -0.319 OA 
ENDBRANCH  16  17
ENDBRANCH  13  16
ENDBRANCH   5   6
ENDBRANCH   4   5
ENDBRANCH   2   4
TORSDOF 5
ENDMDL
MODEL      241
REMARK 921   NORMALIZED FREE ENERGY PREDICTED BY IDOCK:   -2.54 KCAL/MOL
REMARK 922        TOTAL FREE ENERGY PREDICTED BY IDOCK:   -3.72 KCAL/MOL
REMARK 923 INTER-LIGAND FREE ENERGY PREDICTED BY IDOCK:   -3.50 KCAL/MOL
REMARK 924 INTRA-LIGAND FREE ENERGY PREDICTED BY IDOCK:   -0.22 KCAL/MOL
REMARK 927      BINDING AFFINITY PREDICTED BY RF-SCORE:    0.00 PKD
ROOT
HETATM    1  C   UNL     1      -5.774   5.033  68.747  1.00  0.00    -0.016 C  
HETATM    2  N   UNL     1      -6.774   4.619  67.756  1.00  0.00    -0.050 NA 
HETATM    3  C   UNL     1      -7.448   3.406  68.219  1.00  0.00    -0.053 C  
ENDROOT
BRANCH   2   4
HETATM    4  C   UNL     1      -7.720   5.730  67.516  1.00  0.00    -0.097 C  
BRANCH   4   5
HETATM    5  C   UNL     1      -7.163   6.864  66.635  1.00  0.00    -0.076 C  
BRANCH   5   6
HETATM    6  C   UNL     1      -8.177   7.938  66.361  1.00  0.00    -0.121 A  
HETATM    7  C   UNL     1      -8.621   8.353  65.122  1.00  0.00    -0.132 A  
HETATM    8  N   UNL     1      -9.552   9.338  65.301  1.00  0.00    -0.455 NA 
HETATM    9  C   UNL     1      -9.734   9.581  66.642  1.00  0.00    -0.211 A  
HETATM   10  H   UNL     1     -10.040   9.823  64.549  1.00  0.00     0.000 HD 
HETATM   11  C   UNL     1     -10.587  10.483  67.288  1.00  0.00    -0.317 A  
HETATM   12  C   UNL     1     -10.559  10.517  68.687  1.00  0.00    -0.226 A  
HETATM   13  C   UNL     1      -9.707   9.684  69.422  1.00  0.00    -0.203 A  
HETATM   14  C   UNL     1      -8.880   8.772  68.743  1.00  0.00    -0.134 A  
HETATM   15  C   UNL     1      -8.883   8.721  67.333  1.00  0.00    -0.140 A  
BRANCH  13  16
HETATM   16  C   UNL     1      -9.686   9.756  70.932  1.00  0.00     0.036 C  
BRANCH  16  17
HETATM   17  C   UNL     1     -10.355   8.556  71.601  1.00  0.00    -0.263 C  
HETATM   18  C   UNL     1     -11.419   7.872  70.762  1.00  0.00    -0.263 C  
HETATM   19  O   UNL     1     -11.410   6.518  71.242  1.00  0.00    -0.276 OA 
HETATM   20  C   UNL     1     -10.197   6.298  71.834  1.00  0.00    -0.201 C  
HETATM   21  N   UNL     1      -9.471   7.462  71.859  1.00  0.00    -0.144 NA 
HETATM   22  O   UNL     1      -9.832   5.238  72.308  1.00  0.00    -0.162 OA 
ENDBRANCH  16  17
ENDBRANCH  13  16
ENDBRANCH   5   6
ENDBRANCH   4   5
ENDBRANCH   2   4
TORSDOF 5
ENDMDL
MODEL      242
REMARK 921   NORMALIZED FREE ENERGY PREDICTED BY IDOCK:   -2.54 KCAL/MOL
REMARK 922        TOTAL FREE ENERGY PREDICTED BY IDOCK:   -3.72 KCAL/MOL
REMARK 923 INTER-LIGAND FREE ENERGY PREDICTED BY IDOCK:   -3.34 KCAL/MOL
REMARK 924 INTRA-LIGAND FREE ENERGY PREDICTED BY IDOCK:   -0.38 KCAL/MOL
REMARK 927      BINDING AFFINITY PREDICTED BY RF-SCORE:    0.00 PKD
ROOT
HETATM    1  C   UNL     1     -11.278  12.871  63.759  1.00  0.00    -0.402 C  
HETATM    2  N   UNL     1     -10.407  12.483  64.874  1.00  0.00    -0.294 NA 
HETATM    3  C   UNL     1     -10.007  13.677  65.620  1.00  0.00    -0.243 C  
ENDROOT
BRANCH   2   4
HETATM    4  C   UNL     1     -11.107  11.498  65.727  1.00  0.00    -0.210 C  
BRANCH   4   5
HETATM    5  C   UNL     1     -10.575  10.058  65.606  1.00  0.00     0.099 C  
BRANCH   5   6
HETATM    6  C   UNL     1      -9.223   9.991  64.954  1.00  0.00    -0.291 A  
HETATM    7  C   UNL     1      -8.945   9.536  63.682  1.00  0.00    -0.173 A  
HETATM    8  N   UNL     1      -7.600   9.652  63.463  1.00  0.00    -0.117 NA 
HETATM    9  C   UNL     1      -6.982  10.180  64.572  1.00  0.00    -0.117 A  
HETATM   10  H   UNL     1      -7.124   9.385  62.602  1.00  0.00     0.000 HD 
HETATM   11  C   UNL     1      -5.635  10.484  64.795  1.00  0.00    -0.126 A  
HETATM   12  C   UNL     1      -5.286  11.019  66.041  1.00  0.00    -0.142 A  
HETATM   13  C   UNL     1      -6.245  11.240  67.037  1.00  0.00    -0.108 A  
HETATM   14  C   UNL     1      -7.595  10.946  66.771  1.00  0.00    -0.134 A  
HETATM   15  C   UNL     1      -7.973  10.400  65.526  1.00  0.00    -0.153 A  
BRANCH  13  16
HETATM   16  C   UNL     1      -5.836  11.801  68.380  1.00  0.00    -0.049 C  
BRANCH  16  17
HETATM   17  C   UNL     1      -6.331  13.229  68.610  1.00  0.00    -0.087 C  
HETATM   18  C   UNL     1      -5.294  14.177  69.183  1.00  0.00    -0.081 C  
HETATM   19  O   UNL     1      -5.716  15.466  68.710  1.00  0.00    -0.090 OA 
HETATM   20  C   UNL     1      -6.501  15.264  67.609  1.00  0.00    -0.163 C  
HETATM   21  N   UNL     1      -6.697  13.921  67.414  1.00  0.00    -0.249 NA 
HETATM   22  O   UNL     1      -6.992  16.147  66.929  1.00  0.00    -0.208 OA 
ENDBRANCH  16  17
ENDBRANCH  13  16
ENDBRANCH   5   6
ENDBRANCH   4   5
ENDBRANCH   2   4
TORSDOF 5
ENDMDL
MODEL      243
REMARK 921   NORMALIZED FREE ENERGY PREDICTED BY IDOCK:   -2.53 KCAL/MOL
REMARK 922        TOTAL FREE ENERGY PREDICTED BY IDOCK:   -3.71 KCAL/MOL
REMARK 923 INTER-LIGAND FREE ENERGY PREDICTED BY IDOCK:   -3.18 KCAL/MOL
REMARK 924 INTRA-LIGAND FREE ENERGY PREDICTED BY IDOCK:   -0.53 KCAL/MOL
REMARK 927      BINDING AFFINITY PREDICTED BY RF-SCORE:    0.00 PKD
ROOT
HETATM    1  C   UNL     1      -9.472   8.894  72.115  1.00  0.00    -0.112 C  
HETATM    2  N   UNL     1     -10.774   8.591  71.511  1.00  0.00    -0.241 NA 
HETATM    3  C   UNL     1     -10.793   9.065  70.126  1.00  0.00    -0.237 C  
ENDROOT
BRANCH   2   4
HETATM    4  C   UNL     1     -11.040   7.140  71.611  1.00  0.00    -0.235 C  
BRANCH   4   5
HETATM    5  C   UNL     1     -10.037   6.367  72.490  1.00  0.00    -0.191 C  
BRANCH   5   6
HETATM    6  C   UNL     1     -10.074   4.885  72.245  1.00  0.00    -0.247 A  
HETATM    7  C   UNL     1     -10.666   3.934  73.050  1.00  0.00    -0.153 A  
HETATM    8  N   UNL     1     -10.491   2.707  72.472  1.00  0.00    -0.126 NA 
HETATM    9  C   UNL     1      -9.794   2.831  71.294  1.00  0.00    -0.059 A  
HETATM   10  H   UNL     1     -10.829   1.826  72.860  1.00  0.00     0.000 HD 
HETATM   11  C   UNL     1      -9.401   1.856  70.370  1.00  0.00    -0.177 A  
HETATM   12  C   UNL     1      -8.687   2.278  69.243  1.00  0.00    -0.130 A  
HETATM   13  C   UNL     1      -8.368   3.627  69.041  1.00  0.00    -0.087 A  
HETATM   14  C   UNL     1      -8.798   4.584  69.977  1.00  0.00    -0.125 A  
HETATM   15  C   UNL     1      -9.514   4.186  71.126  1.00  0.00    -0.234 A  
BRANCH  13  16
HETATM   16  C   UNL     1      -7.579   4.050  67.823  1.00  0.00    -0.068 C  
BRANCH  16  17
HETATM   17  C   UNL     1      -8.429   4.772  66.778  1.00  0.00    -0.105 C  
HETATM   18  C   UNL     1      -7.639   5.519  65.720  1.00  0.00    -0.083 C  
HETATM   19  O   UNL     1      -8.517   5.527  64.583  1.00  0.00    -0.140 OA 
HETATM   20  C   UNL     1      -9.404   4.498  64.741  1.00  0.00    -0.138 C  
HETATM   21  N   UNL     1      -9.216   3.901  65.961  1.00  0.00    -0.148 NA 
HETATM   22  O   UNL     1     -10.263   4.186  63.936  1.00  0.00    -0.148 OA 
ENDBRANCH  16  17
ENDBRANCH  13  16
ENDBRANCH   5   6
ENDBRANCH   4   5
ENDBRANCH   2   4
TORSDOF 5
ENDMDL
MODEL      244
REMARK 921   NORMALIZED FREE ENERGY PREDICTED BY IDOCK:   -2.51 KCAL/MOL
REMARK 922        TOTAL FREE ENERGY PREDICTED BY IDOCK:   -3.68 KCAL/MOL
REMARK 923 INTER-LIGAND FREE ENERGY PREDICTED BY IDOCK:   -3.81 KCAL/MOL
REMARK 924 INTRA-LIGAND FREE ENERGY PREDICTED BY IDOCK:    0.12 KCAL/MOL
REMARK 927      BINDING AFFINITY PREDICTED BY RF-SCORE:    0.00 PKD
ROOT
HETATM    1  C   UNL     1      -7.689   7.343  63.608  1.00  0.00    -0.125 C  
HETATM    2  N   UNL     1      -7.606   8.805  63.695  1.00  0.00    -0.118 NA 
HETATM    3  C   UNL     1      -7.886   9.389  62.382  1.00  0.00    -0.115 C  
ENDROOT
BRANCH   2   4
HETATM    4  C   UNL     1      -8.538   9.291  64.735  1.00  0.00    -0.184 C  
BRANCH   4   5
HETATM    5  C   UNL     1      -8.891   8.249  65.813  1.00  0.00    -0.194 C  
BRANCH   5   6
HETATM    6  C   UNL     1      -9.771   8.809  66.895  1.00  0.00    -0.273 A  
HETATM    7  C   UNL     1     -10.887   9.600  66.719  1.00  0.00     0.019 A  
HETATM    8  N   UNL     1     -11.414   9.887  67.948  1.00  0.00    -0.563 NA 
HETATM    9  C   UNL     1     -10.664   9.294  68.937  1.00  0.00    -0.156 A  
HETATM   10  H   UNL     1     -12.244  10.458  68.108  1.00  0.00     0.000 HD 
HETATM   11  C   UNL     1     -10.833   9.303  70.325  1.00  0.00    -0.286 A  
HETATM   12  C   UNL     1      -9.899   8.604  71.099  1.00  0.00    -0.285 A  
HETATM   13  C   UNL     1      -8.827   7.921  70.512  1.00  0.00    -0.141 A  
HETATM   14  C   UNL     1      -8.700   7.912  69.111  1.00  0.00    -0.138 A  
HETATM   15  C   UNL     1      -9.624   8.614  68.308  1.00  0.00    -0.160 A  
BRANCH  13  16
HETATM   16  C   UNL     1      -7.823   7.191  71.375  1.00  0.00    -0.097 C  
BRANCH  16  17
HETATM   17  C   UNL     1      -8.389   5.921  72.010  1.00  0.00    -0.115 C  
HETATM   18  C   UNL     1      -7.870   5.621  73.404  1.00  0.00    -0.110 C  
HETATM   19  O   UNL     1      -8.935   4.870  74.008  1.00  0.00    -0.113 OA 
HETATM   20  C   UNL     1     -10.083   5.160  73.324  1.00  0.00    -0.173 C  
HETATM   21  N   UNL     1      -9.798   5.966  72.251  1.00  0.00    -0.161 NA 
HETATM   22  O   UNL     1     -11.189   4.731  73.600  1.00  0.00    -0.319 OA 
ENDBRANCH  16  17
ENDBRANCH  13  16
ENDBRANCH   5   6
ENDBRANCH   4   5
ENDBRANCH   2   4
TORSDOF 5
ENDMDL
MODEL      245
REMARK 921   NORMALIZED FREE ENERGY PREDICTED BY IDOCK:   -2.48 KCAL/MOL
REMARK 922        TOTAL FREE ENERGY PREDICTED BY IDOCK:   -3.64 KCAL/MOL
REMARK 923 INTER-LIGAND FREE ENERGY PREDICTED BY IDOCK:   -3.17 KCAL/MOL
REMARK 924 INTRA-LIGAND FREE ENERGY PREDICTED BY IDOCK:   -0.47 KCAL/MOL
REMARK 927      BINDING AFFINITY PREDICTED BY RF-SCORE:    0.00 PKD
ROOT
HETATM    1  C   UNL     1      -9.814   8.674  67.170  1.00  0.00    -0.207 C  
HETATM    2  N   UNL     1      -9.828   7.215  67.326  1.00  0.00    -0.155 NA 
HETATM    3  C   UNL     1     -11.209   6.731  67.273  1.00  0.00    -0.209 C  
ENDROOT
BRANCH   2   4
HETATM    4  C   UNL     1      -8.978   6.600  66.285  1.00  0.00    -0.152 C  
BRANCH   4   5
HETATM    5  C   UNL     1      -9.437   5.202  65.829  1.00  0.00    -0.153 C  
BRANCH   5   6
HETATM    6  C   UNL     1      -8.549   4.104  66.343  1.00  0.00    -0.113 A  
HETATM    7  C   UNL     1      -7.856   3.184  65.584  1.00  0.00    -0.085 A  
HETATM    8  N   UNL     1      -7.156   2.365  66.425  1.00  0.00    -0.051 NA 
HETATM    9  C   UNL     1      -7.373   2.730  67.733  1.00  0.00    -0.053 A  
HETATM   10  H   UNL     1      -6.559   1.594  66.126  1.00  0.00     0.000 HD 
HETATM   11  C   UNL     1      -6.860   2.191  68.917  1.00  0.00    -0.033 A  
HETATM   12  C   UNL     1      -7.262   2.772  70.125  1.00  0.00    -0.037 A  
HETATM   13  C   UNL     1      -8.152   3.853  70.156  1.00  0.00    -0.063 A  
HETATM   14  C   UNL     1      -8.630   4.387  68.946  1.00  0.00    -0.104 A  
HETATM   15  C   UNL     1      -8.246   3.816  67.714  1.00  0.00    -0.091 A  
BRANCH  13  16
HETATM   16  C   UNL     1      -8.584   4.448  71.477  1.00  0.00    -0.128 C  
BRANCH  16  17
HETATM   17  C   UNL     1     -10.098   4.621  71.592  1.00  0.00    -0.188 C  
HETATM   18  C   UNL     1     -10.672   4.314  72.962  1.00  0.00    -0.192 C  
HETATM   19  O   UNL     1     -11.855   5.125  73.024  1.00  0.00    -0.273 OA 
HETATM   20  C   UNL     1     -11.707   6.140  72.120  1.00  0.00    -0.309 C  
HETATM   21  N   UNL     1     -10.549   5.966  71.406  1.00  0.00    -0.243 NA 
HETATM   22  O   UNL     1     -12.506   7.042  71.943  1.00  0.00    -0.329 OA 
ENDBRANCH  16  17
ENDBRANCH  13  16
ENDBRANCH   5   6
ENDBRANCH   4   5
ENDBRANCH   2   4
TORSDOF 5
ENDMDL
MODEL      246
REMARK 921   NORMALIZED FREE ENERGY PREDICTED BY IDOCK:   -2.46 KCAL/MOL
REMARK 922        TOTAL FREE ENERGY PREDICTED BY IDOCK:   -3.62 KCAL/MOL
REMARK 923 INTER-LIGAND FREE ENERGY PREDICTED BY IDOCK:   -3.02 KCAL/MOL
REMARK 924 INTRA-LIGAND FREE ENERGY PREDICTED BY IDOCK:   -0.60 KCAL/MOL
REMARK 927      BINDING AFFINITY PREDICTED BY RF-SCORE:    0.00 PKD
ROOT
HETATM    1  C   UNL     1     -10.124   9.497  66.104  1.00  0.00    -0.256 C  
HETATM    2  N   UNL     1      -9.970  10.867  65.602  1.00  0.00    -0.239 NA 
HETATM    3  C   UNL     1     -11.172  11.641  65.915  1.00  0.00    -0.238 C  
ENDROOT
BRANCH   2   4
HETATM    4  C   UNL     1      -8.748  11.470  66.178  1.00  0.00    -0.131 C  
BRANCH   4   5
HETATM    5  C   UNL     1      -8.915  11.999  67.615  1.00  0.00    -0.172 C  
BRANCH   5   6
HETATM    6  C   UNL     1      -7.825  11.529  68.536  1.00  0.00    -0.140 A  
HETATM    7  C   UNL     1      -6.646  12.188  68.818  1.00  0.00    -0.083 A  
HETATM    8  N   UNL     1      -5.932  11.439  69.712  1.00  0.00    -0.096 NA 
HETATM    9  C   UNL     1      -6.622  10.293  70.029  1.00  0.00    -0.127 A  
HETATM   10  H   UNL     1      -5.019  11.693  70.088  1.00  0.00     0.000 HD 
HETATM   11  C   UNL     1      -6.288   9.250  70.900  1.00  0.00    -0.076 A  
HETATM   12  C   UNL     1      -7.196   8.192  71.026  1.00  0.00    -0.057 A  
HETATM   13  C   UNL     1      -8.395   8.166  70.305  1.00  0.00    -0.124 A  
HETATM   14  C   UNL     1      -8.712   9.242  69.455  1.00  0.00    -0.146 A  
HETATM   15  C   UNL     1      -7.812  10.319  69.305  1.00  0.00    -0.142 A  
BRANCH  13  16
HETATM   16  C   UNL     1      -9.347   7.000  70.447  1.00  0.00    -0.159 C  
BRANCH  16  17
HETATM   17  C   UNL     1      -8.834   5.722  69.785  1.00  0.00    -0.126 C  
HETATM   18  C   UNL     1      -9.680   4.489  70.041  1.00  0.00    -0.213 C  
HETATM   19  O   UNL     1      -9.437   3.666  68.889  1.00  0.00    -0.161 OA 
HETATM   20  C   UNL     1      -8.998   4.483  67.884  1.00  0.00    -0.116 C  
HETATM   21  N   UNL     1      -8.841   5.761  68.355  1.00  0.00    -0.110 NA 
HETATM   22  O   UNL     1      -8.741   4.120  66.750  1.00  0.00    -0.111 OA 
ENDBRANCH  16  17
ENDBRANCH  13  16
ENDBRANCH   5   6
ENDBRANCH   4   5
ENDBRANCH   2   4
TORSDOF 5
ENDMDL
MODEL      247
REMARK 921   NORMALIZED FREE ENERGY PREDICTED BY IDOCK:   -2.42 KCAL/MOL
REMARK 922        TOTAL FREE ENERGY PREDICTED BY IDOCK:   -3.57 KCAL/MOL
REMARK 923 INTER-LIGAND FREE ENERGY PREDICTED BY IDOCK:   -3.21 KCAL/MOL
REMARK 924 INTRA-LIGAND FREE ENERGY PREDICTED BY IDOCK:   -0.36 KCAL/MOL
REMARK 927      BINDING AFFINITY PREDICTED BY RF-SCORE:    0.00 PKD
ROOT
HETATM    1  C   UNL     1      -6.584   5.783  63.619  1.00  0.00    -0.036 C  
HETATM    2  N   UNL     1      -6.149   6.927  64.428  1.00  0.00    -0.036 NA 
HETATM    3  C   UNL     1      -6.561   8.172  63.778  1.00  0.00    -0.071 C  
ENDROOT
BRANCH   2   4
HETATM    4  C   UNL     1      -6.696   6.801  65.796  1.00  0.00    -0.052 C  
BRANCH   4   5
HETATM    5  C   UNL     1      -8.234   6.769  65.868  1.00  0.00    -0.132 C  
BRANCH   5   6
HETATM    6  C   UNL     1      -8.759   5.519  66.515  1.00  0.00    -0.119 A  
HETATM    7  C   UNL     1      -9.413   4.479  65.885  1.00  0.00    -0.171 A  
HETATM    8  N   UNL     1      -9.714   3.526  66.818  1.00  0.00    -0.396 NA 
HETATM    9  C   UNL     1      -9.267   3.918  68.058  1.00  0.00    -0.163 A  
HETATM   10  H   UNL     1     -10.201   2.652  66.623  1.00  0.00     0.000 HD 
HETATM   11  C   UNL     1      -9.341   3.263  69.292  1.00  0.00    -0.233 A  
HETATM   12  C   UNL     1      -8.795   3.911  70.406  1.00  0.00    -0.140 A  
HETATM   13  C   UNL     1      -8.198   5.173  70.300  1.00  0.00    -0.090 A  
HETATM   14  C   UNL     1      -8.118   5.793  69.040  1.00  0.00    -0.101 A  
HETATM   15  C   UNL     1      -8.666   5.165  67.901  1.00  0.00    -0.102 A  
BRANCH  13  16
HETATM   16  C   UNL     1      -7.633   5.856  71.525  1.00  0.00    -0.099 C  
BRANCH  16  17
HETATM   17  C   UNL     1      -8.686   6.627  72.321  1.00  0.00    -0.132 C  
HETATM   18  C   UNL     1      -8.158   7.836  73.069  1.00  0.00    -0.130 C  
HETATM   19  O   UNL     1      -9.298   8.705  73.157  1.00  0.00    -0.187 OA 
HETATM   20  C   UNL     1     -10.167   8.346  72.165  1.00  0.00    -0.320 C  
HETATM   21  N   UNL     1      -9.702   7.230  71.516  1.00  0.00    -0.160 NA 
HETATM   22  O   UNL     1     -11.221   8.906  71.921  1.00  0.00    -0.338 OA 
ENDBRANCH  16  17
ENDBRANCH  13  16
ENDBRANCH   5   6
ENDBRANCH   4   5
ENDBRANCH   2   4
TORSDOF 5
ENDMDL
MODEL      248
REMARK 921   NORMALIZED FREE ENERGY PREDICTED BY IDOCK:   -2.40 KCAL/MOL
REMARK 922        TOTAL FREE ENERGY PREDICTED BY IDOCK:   -3.54 KCAL/MOL
REMARK 923 INTER-LIGAND FREE ENERGY PREDICTED BY IDOCK:   -3.22 KCAL/MOL
REMARK 924 INTRA-LIGAND FREE ENERGY PREDICTED BY IDOCK:   -0.32 KCAL/MOL
REMARK 927      BINDING AFFINITY PREDICTED BY RF-SCORE:    0.00 PKD
ROOT
HETATM    1  C   UNL     1      -8.982   9.048  66.715  1.00  0.00    -0.135 C  
HETATM    2  N   UNL     1      -8.683  10.249  67.504  1.00  0.00    -0.125 NA 
HETATM    3  C   UNL     1      -9.745  10.465  68.487  1.00  0.00    -0.168 C  
ENDROOT
BRANCH   2   4
HETATM    4  C   UNL     1      -7.354  10.105  68.137  1.00  0.00    -0.082 C  
BRANCH   4   5
HETATM    5  C   UNL     1      -7.271  10.642  69.578  1.00  0.00    -0.140 C  
BRANCH   5   6
HETATM    6  C   UNL     1      -6.681   9.647  70.535  1.00  0.00    -0.119 A  
HETATM    7  C   UNL     1      -5.615   9.856  71.385  1.00  0.00    -0.056 A  
HETATM    8  N   UNL     1      -5.398   8.710  72.100  1.00  0.00    -0.041 NA 
HETATM    9  C   UNL     1      -6.307   7.745  71.738  1.00  0.00    -0.039 A  
HETATM   10  H   UNL     1      -4.667   8.590  72.800  1.00  0.00     0.000 HD 
HETATM   11  C   UNL     1      -6.471   6.438  72.209  1.00  0.00    -0.055 A  
HETATM   12  C   UNL     1      -7.496   5.668  71.647  1.00  0.00    -0.093 A  
HETATM   13  C   UNL     1      -8.330   6.178  70.645  1.00  0.00    -0.126 A  
HETATM   14  C   UNL     1      -8.154   7.504  70.211  1.00  0.00    -0.112 A  
HETATM   15  C   UNL     1      -7.124   8.301  70.756  1.00  0.00    -0.044 A  
BRANCH  13  16
HETATM   16  C   UNL     1      -9.416   5.316  70.044  1.00  0.00    -0.216 C  
BRANCH  16  17
HETATM   17  C   UNL     1     -10.772   5.494  70.727  1.00  0.00    -0.224 C  
HETATM   18  C   UNL     1     -10.729   5.465  72.243  1.00  0.00    -0.231 C  
HETATM   19  O   UNL     1     -11.860   6.261  72.629  1.00  0.00    -0.195 OA 
HETATM   20  C   UNL     1     -12.172   7.073  71.575  1.00  0.00    -0.368 C  
HETATM   21  N   UNL     1     -11.378   6.769  70.499  1.00  0.00    -0.319 NA 
HETATM   22  O   UNL     1     -13.054   7.913  71.576  1.00  0.00    -0.331 OA 
ENDBRANCH  16  17
ENDBRANCH  13  16
ENDBRANCH   5   6
ENDBRANCH   4   5
ENDBRANCH   2   4
TORSDOF 5
ENDMDL
MODEL      249
REMARK 921   NORMALIZED FREE ENERGY PREDICTED BY IDOCK:   -2.39 KCAL/MOL
REMARK 922        TOTAL FREE ENERGY PREDICTED BY IDOCK:   -3.53 KCAL/MOL
REMARK 923 INTER-LIGAND FREE ENERGY PREDICTED BY IDOCK:   -3.19 KCAL/MOL
REMARK 924 INTRA-LIGAND FREE ENERGY PREDICTED BY IDOCK:   -0.34 KCAL/MOL
REMARK 927      BINDING AFFINITY PREDICTED BY RF-SCORE:    0.00 PKD
ROOT
HETATM    1  C   UNL     1     -11.003   8.629  71.897  1.00  0.00    -0.342 C  
HETATM    2  N   UNL     1     -10.307   7.384  72.244  1.00  0.00    -0.206 NA 
HETATM    3  C   UNL     1     -10.436   7.136  73.680  1.00  0.00    -0.370 C  
ENDROOT
BRANCH   2   4
HETATM    4  C   UNL     1     -10.848   6.274  71.431  1.00  0.00    -0.261 C  
BRANCH   4   5
HETATM    5  C   UNL     1     -10.410   4.871  71.894  1.00  0.00    -0.259 C  
BRANCH   5   6
HETATM    6  C   UNL     1      -9.046   4.494  71.390  1.00  0.00    -0.177 A  
HETATM    7  C   UNL     1      -7.888   4.408  72.135  1.00  0.00    -0.090 A  
HETATM    8  N   UNL     1      -6.868   4.021  71.311  1.00  0.00    -0.031 NA 
HETATM    9  C   UNL     1      -7.333   3.845  70.030  1.00  0.00    -0.042 A  
HETATM   10  H   UNL     1      -5.902   3.883  71.605  1.00  0.00     0.000 HD 
HETATM   11  C   UNL     1      -6.658   3.445  68.871  1.00  0.00    -0.040 A  
HETATM   12  C   UNL     1      -7.397   3.354  67.686  1.00  0.00    -0.058 A  
HETATM   13  C   UNL     1      -8.764   3.655  67.651  1.00  0.00    -0.125 A  
HETATM   14  C   UNL     1      -9.418   4.031  68.838  1.00  0.00    -0.237 A  
HETATM   15  C   UNL     1      -8.695   4.138  70.046  1.00  0.00    -0.114 A  
BRANCH  13  16
HETATM   16  C   UNL     1      -9.532   3.565  66.352  1.00  0.00    -0.164 C  
BRANCH  16  17
HETATM   17  C   UNL     1      -9.494   4.860  65.541  1.00  0.00    -0.145 C  
HETATM   18  C   UNL     1      -9.519   6.131  66.369  1.00  0.00    -0.144 C  
HETATM   19  O   UNL     1      -8.844   7.089  65.539  1.00  0.00    -0.083 OA 
HETATM   20  C   UNL     1      -8.067   6.394  64.654  1.00  0.00    -0.100 C  
HETATM   21  N   UNL     1      -8.288   5.048  64.795  1.00  0.00    -0.134 NA 
HETATM   22  O   UNL     1      -7.323   6.897  63.832  1.00  0.00    -0.067 OA 
ENDBRANCH  16  17
ENDBRANCH  13  16
ENDBRANCH   5   6
ENDBRANCH   4   5
ENDBRANCH   2   4
TORSDOF 5
ENDMDL
MODEL      250
REMARK 921   NORMALIZED FREE ENERGY PREDICTED BY IDOCK:   -2.33 KCAL/MOL
REMARK 922        TOTAL FREE ENERGY PREDICTED BY IDOCK:   -3.45 KCAL/MOL
REMARK 923 INTER-LIGAND FREE ENERGY PREDICTED BY IDOCK:   -3.49 KCAL/MOL
REMARK 924 INTRA-LIGAND FREE ENERGY PREDICTED BY IDOCK:    0.04 KCAL/MOL
REMARK 927      BINDING AFFINITY PREDICTED BY RF-SCORE:    0.00 PKD
ROOT
HETATM    1  C   UNL     1      -9.573   6.507  67.433  1.00  0.00    -0.125 C  
HETATM    2  N   UNL     1      -9.078   5.146  67.199  1.00  0.00    -0.112 NA 
HETATM    3  C   UNL     1      -7.620   5.128  67.319  1.00  0.00    -0.091 C  
ENDROOT
BRANCH   2   4
HETATM    4  C   UNL     1      -9.731   4.214  68.144  1.00  0.00    -0.088 C  
BRANCH   4   5
HETATM    5  C   UNL     1      -8.820   3.717  69.282  1.00  0.00    -0.157 C  
BRANCH   5   6
HETATM    6  C   UNL     1      -9.452   3.863  70.637  1.00  0.00    -0.244 A  
HETATM    7  C   UNL     1      -9.875   2.841  71.461  1.00  0.00    -0.125 A  
HETATM    8  N   UNL     1     -10.380   3.387  72.609  1.00  0.00    -0.161 NA 
HETATM    9  C   UNL     1     -10.294   4.759  72.558  1.00  0.00    -0.201 A  
HETATM   10  H   UNL     1     -10.764   2.855  73.388  1.00  0.00     0.000 HD 
HETATM   11  C   UNL     1     -10.671   5.722  73.501  1.00  0.00    -0.300 A  
HETATM   12  C   UNL     1     -10.466   7.067  73.174  1.00  0.00    -0.335 A  
HETATM   13  C   UNL     1      -9.909   7.446  71.947  1.00  0.00    -0.187 A  
HETATM   14  C   UNL     1      -9.519   6.452  71.031  1.00  0.00    -0.181 A  
HETATM   15  C   UNL     1      -9.720   5.088  71.332  1.00  0.00    -0.231 A  
BRANCH  13  16
HETATM   16  C   UNL     1      -9.718   8.908  71.614  1.00  0.00    -0.379 C  
BRANCH  16  17
HETATM   17  C   UNL     1      -8.866   9.134  70.365  1.00  0.00    -0.220 C  
HETATM   18  C   UNL     1      -9.634   9.103  69.057  1.00  0.00    -0.156 C  
HETATM   19  O   UNL     1      -8.854   9.938  68.187  1.00  0.00    -0.118 OA 
HETATM   20  C   UNL     1      -8.098  10.761  68.974  1.00  0.00    -0.140 C  
HETATM   21  N   UNL     1      -8.264  10.429  70.294  1.00  0.00     0.153 NA 
HETATM   22  O   UNL     1      -7.351  11.631  68.562  1.00  0.00    -0.088 OA 
ENDBRANCH  16  17
ENDBRANCH  13  16
ENDBRANCH   5   6
ENDBRANCH   4   5
ENDBRANCH   2   4
TORSDOF 5
ENDMDL
MODEL      251
REMARK 921   NORMALIZED FREE ENERGY PREDICTED BY IDOCK:   -2.33 KCAL/MOL
REMARK 922        TOTAL FREE ENERGY PREDICTED BY IDOCK:   -3.45 KCAL/MOL
REMARK 923 INTER-LIGAND FREE ENERGY PREDICTED BY IDOCK:   -3.02 KCAL/MOL
REMARK 924 INTRA-LIGAND FREE ENERGY PREDICTED BY IDOCK:   -0.43 KCAL/MOL
REMARK 927      BINDING AFFINITY PREDICTED BY RF-SCORE:    0.00 PKD
ROOT
HETATM    1  C   UNL     1      -9.470   3.182  70.669  1.00  0.00    -0.163 C  
HETATM    2  N   UNL     1      -9.481   4.287  69.704  1.00  0.00    -0.170 NA 
HETATM    3  C   UNL     1     -10.727   5.044  69.841  1.00  0.00     0.180 C  
ENDROOT
BRANCH   2   4
HETATM    4  C   UNL     1      -8.285   5.132  69.908  1.00  0.00    -0.086 C  
BRANCH   4   5
HETATM    5  C   UNL     1      -8.375   6.083  71.117  1.00  0.00    -0.124 C  
BRANCH   5   6
HETATM    6  C   UNL     1      -7.532   7.315  70.950  1.00  0.00    -0.075 A  
HETATM    7  C   UNL     1      -6.203   7.454  71.292  1.00  0.00    -0.036 A  
HETATM    8  N   UNL     1      -5.801   8.721  70.969  1.00  0.00    -0.035 NA 
HETATM    9  C   UNL     1      -6.845   9.423  70.414  1.00  0.00    -0.089 A  
HETATM   10  H   UNL     1      -4.863   9.091  71.117  1.00  0.00     0.000 HD 
HETATM   11  C   UNL     1      -6.894  10.734  69.928  1.00  0.00    -0.146 A  
HETATM   12  C   UNL     1      -8.112  11.193  69.414  1.00  0.00     0.139 A  
HETATM   13  C   UNL     1      -9.250  10.377  69.389  1.00  0.00    -0.177 A  
HETATM   14  C   UNL     1      -9.161   9.056  69.863  1.00  0.00    -0.176 A  
HETATM   15  C   UNL     1      -7.946   8.569  70.393  1.00  0.00    -0.099 A  
BRANCH  13  16
HETATM   16  C   UNL     1     -10.557  10.906  68.845  1.00  0.00    -0.241 C  
BRANCH  16  17
HETATM   17  C   UNL     1     -10.402  12.222  68.083  1.00  0.00    -0.216 C  
HETATM   18  C   UNL     1     -11.020  12.232  66.697  1.00  0.00    -0.278 C  
HETATM   19  O   UNL     1     -11.335  13.615  66.476  1.00  0.00    -0.305 OA 
HETATM   20  C   UNL     1     -11.423  14.218  67.700  1.00  0.00    -0.346 C  
HETATM   21  N   UNL     1     -11.075  13.330  68.686  1.00  0.00    -0.256 NA 
HETATM   22  O   UNL     1     -11.722  15.384  67.885  1.00  0.00    -0.319 OA 
ENDBRANCH  16  17
ENDBRANCH  13  16
ENDBRANCH   5   6
ENDBRANCH   4   5
ENDBRANCH   2   4
TORSDOF 5
ENDMDL
MODEL      252
REMARK 921   NORMALIZED FREE ENERGY PREDICTED BY IDOCK:   -2.32 KCAL/MOL
REMARK 922        TOTAL FREE ENERGY PREDICTED BY IDOCK:   -3.44 KCAL/MOL
REMARK 923 INTER-LIGAND FREE ENERGY PREDICTED BY IDOCK:   -3.37 KCAL/MOL
REMARK 924 INTRA-LIGAND FREE ENERGY PREDICTED BY IDOCK:   -0.07 KCAL/MOL
REMARK 927      BINDING AFFINITY PREDICTED BY RF-SCORE:    0.00 PKD
ROOT
HETATM    1  C   UNL     1      -7.149   5.466  63.637  1.00  0.00    -0.048 C  
HETATM    2  N   UNL     1      -6.729   6.624  64.435  1.00  0.00    -0.041 NA 
HETATM    3  C   UNL     1      -6.895   7.847  63.648  1.00  0.00    -0.074 C  
ENDROOT
BRANCH   2   4
HETATM    4  C   UNL     1      -7.499   6.659  65.696  1.00  0.00    -0.082 C  
BRANCH   4   5
HETATM    5  C   UNL     1      -9.027   6.596  65.513  1.00  0.00     0.077 C  
BRANCH   5   6
HETATM    6  C   UNL     1      -9.777   6.915  66.775  1.00  0.00    -0.232 A  
HETATM    7  C   UNL     1     -10.951   6.331  67.204  1.00  0.00    -0.370 A  
HETATM    8  N   UNL     1     -11.300   6.886  68.403  1.00  0.00    -0.526 NA 
HETATM    9  C   UNL     1     -10.373   7.830  68.778  1.00  0.00    -0.204 A  
HETATM   10  H   UNL     1     -12.129   6.638  68.942  1.00  0.00     0.000 HD 
HETATM   11  C   UNL     1     -10.314   8.633  69.922  1.00  0.00    -0.213 A  
HETATM   12  C   UNL     1      -9.238   9.520  70.039  1.00  0.00    -0.264 A  
HETATM   13  C   UNL     1      -8.253   9.611  69.048  1.00  0.00    -0.113 A  
HETATM   14  C   UNL     1      -8.329   8.773  67.922  1.00  0.00    -0.118 A  
HETATM   15  C   UNL     1      -9.406   7.873  67.775  1.00  0.00    -0.153 A  
BRANCH  13  16
HETATM   16  C   UNL     1      -7.112  10.593  69.194  1.00  0.00    -0.095 C  
BRANCH  16  17
HETATM   17  C   UNL     1      -7.501  12.025  68.828  1.00  0.00    -0.086 C  
HETATM   18  C   UNL     1      -6.428  12.809  68.097  1.00  0.00    -0.085 C  
HETATM   19  O   UNL     1      -7.173  13.764  67.325  1.00  0.00    -0.136 OA 
HETATM   20  C   UNL     1      -8.440  13.274  67.175  1.00  0.00    -0.176 C  
HETATM   21  N   UNL     1      -8.583  12.117  67.898  1.00  0.00    -0.158 NA 
HETATM   22  O   UNL     1      -9.326  13.809  66.533  1.00  0.00    -0.269 OA 
ENDBRANCH  16  17
ENDBRANCH  13  16
ENDBRANCH   5   6
ENDBRANCH   4   5
ENDBRANCH   2   4
TORSDOF 5
ENDMDL
MODEL      253
REMARK 921   NORMALIZED FREE ENERGY PREDICTED BY IDOCK:   -2.21 KCAL/MOL
REMARK 922        TOTAL FREE ENERGY PREDICTED BY IDOCK:   -3.30 KCAL/MOL
REMARK 923 INTER-LIGAND FREE ENERGY PREDICTED BY IDOCK:   -3.73 KCAL/MOL
REMARK 924 INTRA-LIGAND FREE ENERGY PREDICTED BY IDOCK:    0.44 KCAL/MOL
REMARK 927      BINDING AFFINITY PREDICTED BY RF-SCORE:    0.00 PKD
ROOT
HETATM    1  C   UNL     1      -6.267   8.343  68.604  1.00  0.00    -0.045 C  
HETATM    2  N   UNL     1      -7.048   9.585  68.620  1.00  0.00    -0.068 NA 
HETATM    3  C   UNL     1      -6.686  10.375  69.798  1.00  0.00    -0.117 C  
ENDROOT
BRANCH   2   4
HETATM    4  C   UNL     1      -6.826  10.324  67.359  1.00  0.00    -0.077 C  
BRANCH   4   5
HETATM    5  C   UNL     1      -7.350  11.773  67.366  1.00  0.00    -0.136 C  
BRANCH   5   6
HETATM    6  C   UNL     1      -8.850  11.847  67.371  1.00  0.00    -0.171 A  
HETATM    7  C   UNL     1      -9.723  10.861  66.963  1.00  0.00    -0.176 A  
HETATM    8  N   UNL     1     -11.002  11.312  67.138  1.00  0.00    -0.277 NA 
HETATM    9  C   UNL     1     -10.989  12.584  67.660  1.00  0.00    -0.242 A  
HETATM   10  H   UNL     1     -11.844  10.782  66.913  1.00  0.00     0.000 HD 
HETATM   11  C   UNL     1     -12.050  13.426  68.011  1.00  0.00    -0.283 A  
HETATM   12  C   UNL     1     -11.735  14.689  68.525  1.00  0.00    -0.348 A  
HETATM   13  C   UNL     1     -10.408  15.106  68.681  1.00  0.00    -0.232 A  
HETATM   14  C   UNL     1      -9.365  14.226  68.341  1.00  0.00    -0.208 A  
HETATM   15  C   UNL     1      -9.653  12.949  67.814  1.00  0.00    -0.212 A  
BRANCH  13  16
HETATM   16  C   UNL     1     -10.099  16.484  69.221  1.00  0.00    -0.270 C  
BRANCH  16  17
HETATM   17  C   UNL     1      -8.847  17.105  68.602  1.00  0.00    -0.266 C  
HETATM   18  C   UNL     1      -7.536  16.601  69.177  1.00  0.00    -0.207 C  
HETATM   19  O   UNL     1      -6.605  16.772  68.096  1.00  0.00    -0.138 OA 
HETATM   20  C   UNL     1      -7.325  16.821  66.935  1.00  0.00    -0.222 C  
HETATM   21  N   UNL     1      -8.668  16.802  67.216  1.00  0.00    -0.196 NA 
HETATM   22  O   UNL     1      -6.847  16.912  65.819  1.00  0.00     0.157 OA 
ENDBRANCH  16  17
ENDBRANCH  13  16
ENDBRANCH   5   6
ENDBRANCH   4   5
ENDBRANCH   2   4
TORSDOF 5
ENDMDL
MODEL      254
REMARK 921   NORMALIZED FREE ENERGY PREDICTED BY IDOCK:   -2.13 KCAL/MOL
REMARK 922        TOTAL FREE ENERGY PREDICTED BY IDOCK:   -3.20 KCAL/MOL
REMARK 923 INTER-LIGAND FREE ENERGY PREDICTED BY IDOCK:   -2.80 KCAL/MOL
REMARK 924 INTRA-LIGAND FREE ENERGY PREDICTED BY IDOCK:   -0.39 KCAL/MOL
REMARK 927      BINDING AFFINITY PREDICTED BY RF-SCORE:    0.00 PKD
ROOT
HETATM    1  C   UNL     1      -7.353   6.348  63.597  1.00  0.00    -0.073 C  
HETATM    2  N   UNL     1      -7.351   7.814  63.667  1.00  0.00    -0.093 NA 
HETATM    3  C   UNL     1      -7.581   8.368  62.332  1.00  0.00    -0.115 C  
ENDROOT
BRANCH   2   4
HETATM    4  C   UNL     1      -8.366   8.262  64.644  1.00  0.00    -0.105 C  
BRANCH   4   5
HETATM    5  C   UNL     1      -8.723   7.218  65.718  1.00  0.00    -0.129 C  
BRANCH   5   6
HETATM    6  C   UNL     1      -9.504   7.803  66.861  1.00  0.00    -0.238 A  
HETATM    7  C   UNL     1     -10.597   8.639  66.766  1.00  0.00    -0.153 A  
HETATM    8  N   UNL     1     -11.026   8.937  68.030  1.00  0.00    -0.483 NA 
HETATM    9  C   UNL     1     -10.235   8.308  68.962  1.00  0.00    -0.217 A  
HETATM   10  H   UNL     1     -11.819   9.540  68.249  1.00  0.00     0.000 HD 
HETATM   11  C   UNL     1     -10.307   8.314  70.359  1.00  0.00    -0.214 A  
HETATM   12  C   UNL     1      -9.351   7.573  71.063  1.00  0.00    -0.157 A  
HETATM   13  C   UNL     1      -8.350   6.852  70.400  1.00  0.00    -0.130 A  
HETATM   14  C   UNL     1      -8.320   6.848  68.994  1.00  0.00    -0.125 A  
HETATM   15  C   UNL     1      -9.268   7.592  68.259  1.00  0.00    -0.138 A  
BRANCH  13  16
HETATM   16  C   UNL     1      -7.319   6.076  71.188  1.00  0.00    -0.084 C  
BRANCH  16  17
HETATM   17  C   UNL     1      -7.905   4.865  71.913  1.00  0.00    -0.108 C  
HETATM   18  C   UNL     1      -8.372   3.743  71.004  1.00  0.00    -0.067 C  
HETATM   19  O   UNL     1      -8.244   2.569  71.822  1.00  0.00    -0.055 OA 
HETATM   20  C   UNL     1      -7.342   2.851  72.809  1.00  0.00    -0.045 C  
HETATM   21  N   UNL     1      -6.968   4.169  72.740  1.00  0.00    -0.055 NA 
HETATM   22  O   UNL     1      -6.961   2.061  73.655  1.00  0.00    -0.022 OA 
ENDBRANCH  16  17
ENDBRANCH  13  16
ENDBRANCH   5   6
ENDBRANCH   4   5
ENDBRANCH   2   4
TORSDOF 5
ENDMDL
MODEL      255
REMARK 921   NORMALIZED FREE ENERGY PREDICTED BY IDOCK:   -2.07 KCAL/MOL
REMARK 922        TOTAL FREE ENERGY PREDICTED BY IDOCK:   -3.12 KCAL/MOL
REMARK 923 INTER-LIGAND FREE ENERGY PREDICTED BY IDOCK:   -3.11 KCAL/MOL
REMARK 924 INTRA-LIGAND FREE ENERGY PREDICTED BY IDOCK:   -0.01 KCAL/MOL
REMARK 927      BINDING AFFINITY PREDICTED BY RF-SCORE:    0.00 PKD
ROOT
HETATM    1  C   UNL     1      -7.893   8.935  70.319  1.00  0.00    -0.104 C  
HETATM    2  N   UNL     1      -6.874   7.927  70.006  1.00  0.00    -0.044 NA 
HETATM    3  C   UNL     1      -6.376   7.332  71.247  1.00  0.00    -0.036 C  
ENDROOT
BRANCH   2   4
HETATM    4  C   UNL     1      -7.444   6.916  69.089  1.00  0.00    -0.095 C  
BRANCH   4   5
HETATM    5  C   UNL     1      -7.122   7.150  67.601  1.00  0.00    -0.089 C  
BRANCH   5   6
HETATM    6  C   UNL     1      -8.176   7.959  66.899  1.00  0.00    -0.116 A  
HETATM    7  C   UNL     1      -9.279   7.469  66.231  1.00  0.00    -0.146 A  
HETATM    8  N   UNL     1      -9.997   8.526  65.744  1.00  0.00    -0.368 NA 
HETATM    9  C   UNL     1      -9.388   9.711  66.084  1.00  0.00    -0.194 A  
HETATM   10  H   UNL     1     -10.860   8.447  65.207  1.00  0.00     0.000 HD 
HETATM   11  C   UNL     1      -9.768  11.030  65.815  1.00  0.00    -0.268 A  
HETATM   12  C   UNL     1      -8.940  12.055  66.289  1.00  0.00    -0.129 A  
HETATM   13  C   UNL     1      -7.768  11.778  67.003  1.00  0.00    -0.158 A  
HETATM   14  C   UNL     1      -7.428  10.441  67.277  1.00  0.00    -0.094 A  
HETATM   15  C   UNL     1      -8.241   9.388  66.806  1.00  0.00    -0.112 A  
BRANCH  13  16
HETATM   16  C   UNL     1      -6.884  12.906  67.486  1.00  0.00    -0.155 C  
BRANCH  16  17
HETATM   17  C   UNL     1      -7.537  14.281  67.352  1.00  0.00    -0.163 C  
HETATM   18  C   UNL     1      -8.721  14.516  68.271  1.00  0.00    -0.173 C  
HETATM   19  O   UNL     1      -8.730  15.940  68.455  1.00  0.00    -0.173 OA 
HETATM   20  C   UNL     1      -7.472  16.399  68.178  1.00  0.00    -0.149 C  
HETATM   21  N   UNL     1      -6.688  15.370  67.722  1.00  0.00    -0.151 NA 
HETATM   22  O   UNL     1      -7.113  17.558  68.278  1.00  0.00    -0.195 OA 
ENDBRANCH  16  17
ENDBRANCH  13  16
ENDBRANCH   5   6
ENDBRANCH   4   5
ENDBRANCH   2   4
TORSDOF 5
ENDMDL
MODEL      256
REMARK 921   NORMALIZED FREE ENERGY PREDICTED BY IDOCK:   -1.92 KCAL/MOL
REMARK 922        TOTAL FREE ENERGY PREDICTED BY IDOCK:   -2.92 KCAL/MOL
REMARK 923 INTER-LIGAND FREE ENERGY PREDICTED BY IDOCK:   -3.00 KCAL/MOL
REMARK 924 INTRA-LIGAND FREE ENERGY PREDICTED BY IDOCK:    0.08 KCAL/MOL
REMARK 927      BINDING AFFINITY PREDICTED BY RF-SCORE:    0.00 PKD
ROOT
HETATM    1  C   UNL     1      -8.102   6.384  64.642  1.00  0.00    -0.100 C  
HETATM    2  N   UNL     1      -7.951   7.814  64.934  1.00  0.00    -0.133 NA 
HETATM    3  C   UNL     1      -8.125   8.585  63.703  1.00  0.00    -0.154 C  
ENDROOT
BRANCH   2   4
HETATM    4  C   UNL     1      -8.914   8.207  65.984  1.00  0.00    -0.171 C  
BRANCH   4   5
HETATM    5  C   UNL     1      -9.413   7.043  66.862  1.00  0.00    -0.199 C  
BRANCH   5   6
HETATM    6  C   UNL     1      -9.828   7.488  68.235  1.00  0.00    -0.177 A  
HETATM    7  C   UNL     1     -10.617   8.576  68.544  1.00  0.00    -0.111 A  
HETATM    8  N   UNL     1     -10.773   8.630  69.901  1.00  0.00    -0.229 NA 
HETATM    9  C   UNL     1     -10.100   7.590  70.498  1.00  0.00    -0.188 A  
HETATM   10  H   UNL     1     -11.310   9.339  70.399  1.00  0.00     0.000 HD 
HETATM   11  C   UNL     1      -9.992   7.242  71.848  1.00  0.00    -0.184 A  
HETATM   12  C   UNL     1      -9.227   6.115  72.171  1.00  0.00    -0.142 A  
HETATM   13  C   UNL     1      -8.585   5.359  71.182  1.00  0.00    -0.128 A  
HETATM   14  C   UNL     1      -8.734   5.722  69.832  1.00  0.00    -0.128 A  
HETATM   15  C   UNL     1      -9.494   6.858  69.479  1.00  0.00    -0.146 A  
BRANCH  13  16
HETATM   16  C   UNL     1      -7.749   4.158  71.563  1.00  0.00    -0.065 C  
BRANCH  16  17
HETATM   17  C   UNL     1      -8.570   3.028  72.183  1.00  0.00    -0.074 C  
HETATM   18  C   UNL     1      -8.169   2.651  73.597  1.00  0.00    -0.067 C  
HETATM   19  O   UNL     1      -9.379   2.125  74.164  1.00  0.00    -0.074 OA 
HETATM   20  C   UNL     1     -10.424   2.621  73.437  1.00  0.00    -0.146 C  
HETATM   21  N   UNL     1      -9.952   3.344  72.371  1.00  0.00    -0.158 NA 
HETATM   22  O   UNL     1     -11.601   2.415  73.673  1.00  0.00    -0.227 OA 
ENDBRANCH  16  17
ENDBRANCH  13  16
ENDBRANCH   5   6
ENDBRANCH   4   5
ENDBRANCH   2   4
TORSDOF 5
ENDMDL
MODEL      257
REMARK 921   NORMALIZED FREE ENERGY PREDICTED BY IDOCK:   -1.77 KCAL/MOL
REMARK 922        TOTAL FREE ENERGY PREDICTED BY IDOCK:   -2.73 KCAL/MOL
REMARK 923 INTER-LIGAND FREE ENERGY PREDICTED BY IDOCK:   -2.33 KCAL/MOL
REMARK 924 INTRA-LIGAND FREE ENERGY PREDICTED BY IDOCK:   -0.40 KCAL/MOL
REMARK 927      BINDING AFFINITY PREDICTED BY RF-SCORE:    0.00 PKD
ROOT
HETATM    1  C   UNL     1      -9.688   1.651  70.184  1.00  0.00     0.058 C  
HETATM    2  N   UNL     1      -8.938   2.875  69.880  1.00  0.00    -0.093 NA 
HETATM    3  C   UNL     1      -9.798   4.041  70.088  1.00  0.00    -0.137 C  
ENDROOT
BRANCH   2   4
HETATM    4  C   UNL     1      -7.716   2.924  70.711  1.00  0.00    -0.042 C  
BRANCH   4   5
HETATM    5  C   UNL     1      -7.968   2.791  72.225  1.00  0.00    -0.055 C  
BRANCH   5   6
HETATM    6  C   UNL     1      -7.254   3.843  73.027  1.00  0.00    -0.059 A  
HETATM    7  C   UNL     1      -6.205   3.640  73.899  1.00  0.00    -0.024 A  
HETATM    8  N   UNL     1      -5.829   4.849  74.416  1.00  0.00    -0.033 NA 
HETATM    9  C   UNL     1      -6.614   5.852  73.896  1.00  0.00    -0.079 A  
HETATM   10  H   UNL     1      -5.077   4.987  75.089  1.00  0.00     0.000 HD 
HETATM   11  C   UNL     1      -6.583   7.232  74.125  1.00  0.00    -0.077 A  
HETATM   12  C   UNL     1      -7.518   8.024  73.450  1.00  0.00    -0.187 A  
HETATM   13  C   UNL     1      -8.459   7.463  72.578  1.00  0.00    -0.131 A  
HETATM   14  C   UNL     1      -8.448   6.075  72.352  1.00  0.00    -0.116 A  
HETATM   15  C   UNL     1      -7.520   5.252  73.024  1.00  0.00    -0.096 A  
BRANCH  13  16
HETATM   16  C   UNL     1      -9.470   8.343  71.877  1.00  0.00    -0.323 C  
BRANCH  16  17
HETATM   17  C   UNL     1      -9.187   8.511  70.385  1.00  0.00    -0.160 C  
HETATM   18  C   UNL     1     -10.409   8.803  69.534  1.00  0.00    -0.213 C  
HETATM   19  O   UNL     1      -9.878   9.534  68.418  1.00  0.00    -0.152 OA 
HETATM   20  C   UNL     1      -8.683  10.070  68.807  1.00  0.00    -0.136 C  
HETATM   21  N   UNL     1      -8.364   9.637  70.069  1.00  0.00    -0.168 NA 
HETATM   22  O   UNL     1      -7.982  10.791  68.119  1.00  0.00    -0.107 OA 
ENDBRANCH  16  17
ENDBRANCH  13  16
ENDBRANCH   5   6
ENDBRANCH   4   5
ENDBRANCH   2   4
TORSDOF 5
ENDMDL
MODEL      258
REMARK 921   NORMALIZED FREE ENERGY PREDICTED BY IDOCK:   -1.58 KCAL/MOL
REMARK 922        TOTAL FREE ENERGY PREDICTED BY IDOCK:   -2.48 KCAL/MOL
REMARK 923 INTER-LIGAND FREE ENERGY PREDICTED BY IDOCK:   -2.17 KCAL/MOL
REMARK 924 INTRA-LIGAND FREE ENERGY PREDICTED BY IDOCK:   -0.31 KCAL/MOL
REMARK 927      BINDING AFFINITY PREDICTED BY RF-SCORE:    0.00 PKD
ROOT
HETATM    1  C   UNL     1      -9.284   5.525  66.428  1.00  0.00    -0.150 C  
HETATM    2  N   UNL     1      -9.765   4.948  67.688  1.00  0.00    -0.151 NA 
HETATM    3  C   UNL     1      -9.524   3.504  67.688  1.00  0.00    -0.183 C  
ENDROOT
BRANCH   2   4
HETATM    4  C   UNL     1      -9.107   5.627  68.824  1.00  0.00    -0.118 C  
BRANCH   4   5
HETATM    5  C   UNL     1      -8.334   4.687  69.769  1.00  0.00    -0.081 C  
BRANCH   5   6
HETATM    6  C   UNL     1      -8.011   5.327  71.089  1.00  0.00    -0.108 A  
HETATM    7  C   UNL     1      -8.305   4.825  72.340  1.00  0.00    -0.116 A  
HETATM    8  N   UNL     1      -7.833   5.698  73.280  1.00  0.00    -0.106 NA 
HETATM    9  C   UNL     1      -7.226   6.771  72.671  1.00  0.00    -0.079 A  
HETATM   10  H   UNL     1      -7.919   5.572  74.288  1.00  0.00     0.000 HD 
HETATM   11  C   UNL     1      -6.596   7.888  73.229  1.00  0.00    -0.092 A  
HETATM   12  C   UNL     1      -6.060   8.839  72.352  1.00  0.00    -0.066 A  
HETATM   13  C   UNL     1      -6.152   8.687  70.963  1.00  0.00    -0.040 A  
HETATM   14  C   UNL     1      -6.770   7.540  70.435  1.00  0.00    -0.047 A  
HETATM   15  C   UNL     1      -7.324   6.569  71.296  1.00  0.00    -0.080 A  
BRANCH  13  16
HETATM   16  C   UNL     1      -5.580   9.740  70.041  1.00  0.00    -0.041 C  
BRANCH  16  17
HETATM   17  C   UNL     1      -6.289  11.089  70.157  1.00  0.00    -0.147 C  
HETATM   18  C   UNL     1      -5.385  12.255  70.510  1.00  0.00    -0.145 C  
HETATM   19  O   UNL     1      -6.056  13.389  69.939  1.00  0.00    -0.123 OA 
HETATM   20  C   UNL     1      -6.883  12.926  68.954  1.00  0.00    -0.095 C  
HETATM   21  N   UNL     1      -6.864  11.554  68.933  1.00  0.00    -0.088 NA 
HETATM   22  O   UNL     1      -7.569  13.625  68.230  1.00  0.00    -0.110 OA 
ENDBRANCH  16  17
ENDBRANCH  13  16
ENDBRANCH   5   6
ENDBRANCH   4   5
ENDBRANCH   2   4
TORSDOF 5
ENDMDL
MODEL      259
REMARK 921   NORMALIZED FREE ENERGY PREDICTED BY IDOCK:   -1.57 KCAL/MOL
REMARK 922        TOTAL FREE ENERGY PREDICTED BY IDOCK:   -2.47 KCAL/MOL
REMARK 923 INTER-LIGAND FREE ENERGY PREDICTED BY IDOCK:   -2.55 KCAL/MOL
REMARK 924 INTRA-LIGAND FREE ENERGY PREDICTED BY IDOCK:    0.09 KCAL/MOL
REMARK 927      BINDING AFFINITY PREDICTED BY RF-SCORE:    0.00 PKD
ROOT
HETATM    1  C   UNL     1     -11.366   6.223  68.415  1.00  0.00     0.006 C  
HETATM    2  N   UNL     1     -10.291   6.928  67.707  1.00  0.00    -0.185 NA 
HETATM    3  C   UNL     1     -10.416   8.368  67.939  1.00  0.00    -0.193 C  
ENDROOT
BRANCH   2   4
HETATM    4  C   UNL     1      -8.982   6.400  68.146  1.00  0.00    -0.116 C  
BRANCH   4   5
HETATM    5  C   UNL     1      -8.827   4.875  67.998  1.00  0.00    -0.112 C  
BRANCH   5   6
HETATM    6  C   UNL     1      -8.603   4.449  66.575  1.00  0.00    -0.112 A  
HETATM    7  C   UNL     1      -9.017   3.268  65.996  1.00  0.00    -0.145 A  
HETATM    8  N   UNL     1      -8.632   3.268  64.684  1.00  0.00    -0.097 NA 
HETATM    9  C   UNL     1      -7.970   4.436  64.384  1.00  0.00    -0.091 A  
HETATM   10  H   UNL     1      -8.809   2.512  64.024  1.00  0.00     0.000 HD 
HETATM   11  C   UNL     1      -7.416   4.874  63.176  1.00  0.00    -0.054 A  
HETATM   12  C   UNL     1      -6.790   6.125  63.164  1.00  0.00    -0.044 A  
HETATM   13  C   UNL     1      -6.712   6.916  64.317  1.00  0.00    -0.045 A  
HETATM   14  C   UNL     1      -7.301   6.457  65.508  1.00  0.00    -0.076 A  
HETATM   15  C   UNL     1      -7.933   5.196  65.551  1.00  0.00    -0.109 A  
BRANCH  13  16
HETATM   16  C   UNL     1      -6.013   8.256  64.278  1.00  0.00    -0.065 C  
BRANCH  16  17
HETATM   17  C   UNL     1      -6.979   9.439  64.315  1.00  0.00    -0.102 C  
HETATM   18  C   UNL     1      -7.434   9.933  62.954  1.00  0.00    -0.131 C  
HETATM   19  O   UNL     1      -8.722  10.512  63.216  1.00  0.00    -0.174 OA 
HETATM   20  C   UNL     1      -9.192   9.961  64.376  1.00  0.00    -0.264 C  
HETATM   21  N   UNL     1      -8.237   9.148  64.929  1.00  0.00    -0.143 NA 
HETATM   22  O   UNL     1     -10.282  10.194  64.868  1.00  0.00    -0.300 OA 
ENDBRANCH  16  17
ENDBRANCH  13  16
ENDBRANCH   5   6
ENDBRANCH   4   5
ENDBRANCH   2   4
TORSDOF 5
ENDMDL
MODEL      260
REMARK 921   NORMALIZED FREE ENERGY PREDICTED BY IDOCK:   -1.41 KCAL/MOL
REMARK 922        TOTAL FREE ENERGY PREDICTED BY IDOCK:   -2.26 KCAL/MOL
REMARK 923 INTER-LIGAND FREE ENERGY PREDICTED BY IDOCK:   -1.94 KCAL/MOL
REMARK 924 INTRA-LIGAND FREE ENERGY PREDICTED BY IDOCK:   -0.32 KCAL/MOL
REMARK 927      BINDING AFFINITY PREDICTED BY RF-SCORE:    0.00 PKD
ROOT
HETATM    1  C   UNL     1      -9.654   3.057  70.490  1.00  0.00    -0.117 C  
HETATM    2  N   UNL     1      -8.845   4.152  69.943  1.00  0.00    -0.077 NA 
HETATM    3  C   UNL     1      -9.628   5.389  69.947  1.00  0.00    -0.168 C  
ENDROOT
BRANCH   2   4
HETATM    4  C   UNL     1      -7.594   4.277  70.721  1.00  0.00    -0.052 C  
BRANCH   4   5
HETATM    5  C   UNL     1      -7.797   4.657  72.200  1.00  0.00    -0.096 C  
BRANCH   5   6
HETATM    6  C   UNL     1      -6.872   5.752  72.650  1.00  0.00    -0.078 A  
HETATM    7  C   UNL     1      -5.915   5.663  73.640  1.00  0.00    -0.055 A  
HETATM    8  N   UNL     1      -5.276   6.868  73.736  1.00  0.00    -0.042 NA 
HETATM    9  C   UNL     1      -5.795   7.755  72.822  1.00  0.00    -0.044 A  
HETATM   10  H   UNL     1      -4.524   7.079  74.392  1.00  0.00     0.000 HD 
HETATM   11  C   UNL     1      -5.447   9.083  72.556  1.00  0.00    -0.072 A  
HETATM   12  C   UNL     1      -6.159   9.755  71.555  1.00  0.00     0.098 A  
HETATM   13  C   UNL     1      -7.189   9.128  70.844  1.00  0.00    -0.118 A  
HETATM   14  C   UNL     1      -7.498   7.784  71.120  1.00  0.00    -0.078 A  
HETATM   15  C   UNL     1      -6.801   7.085  72.128  1.00  0.00    -0.057 A  
BRANCH  13  16
HETATM   16  C   UNL     1      -7.954   9.884  69.781  1.00  0.00    -0.181 C  
BRANCH  16  17
HETATM   17  C   UNL     1      -7.165  10.058  68.484  1.00  0.00    -0.076 C  
HETATM   18  C   UNL     1      -8.016  10.183  67.234  1.00  0.00    -0.110 C  
HETATM   19  O   UNL     1      -7.196  10.952  66.341  1.00  0.00    -0.134 OA 
HETATM   20  C   UNL     1      -6.289  11.638  67.101  1.00  0.00    -0.139 C  
HETATM   21  N   UNL     1      -6.409  11.269  68.417  1.00  0.00    -0.046 NA 
HETATM   22  O   UNL     1      -5.467  12.425  66.668  1.00  0.00    -0.291 OA 
ENDBRANCH  16  17
ENDBRANCH  13  16
ENDBRANCH   5   6
ENDBRANCH   4   5
ENDBRANCH   2   4
TORSDOF 5
ENDMDL
MODEL      261
REMARK 921   NORMALIZED FREE ENERGY PREDICTED BY IDOCK:   -0.47 KCAL/MOL
REMARK 922        TOTAL FREE ENERGY PREDICTED BY IDOCK:   -1.05 KCAL/MOL
REMARK 923 INTER-LIGAND FREE ENERGY PREDICTED BY IDOCK:   -0.75 KCAL/MOL
REMARK 924 INTRA-LIGAND FREE ENERGY PREDICTED BY IDOCK:   -0.30 KCAL/MOL
REMARK 927      BINDING AFFINITY PREDICTED BY RF-SCORE:    0.00 PKD
ROOT
HETATM    1  C   UNL     1     -11.784   6.324  68.435  1.00  0.00     0.988 C  
HETATM    2  N   UNL     1     -11.013   7.507  68.836  1.00  0.00    -0.022 NA 
HETATM    3  C   UNL     1     -10.935   7.567  70.297  1.00  0.00    -0.250 C  
ENDROOT
BRANCH   2   4
HETATM    4  C   UNL     1      -9.677   7.463  68.204  1.00  0.00    -0.151 C  
BRANCH   4   5
HETATM    5  C   UNL     1      -9.254   8.774  67.514  1.00  0.00    -0.154 C  
BRANCH   5   6
HETATM    6  C   UNL     1      -7.825   8.752  67.054  1.00  0.00    -0.095 A  
HETATM    7  C   UNL     1      -6.727   9.200  67.760  1.00  0.00    -0.065 A  
HETATM    8  N   UNL     1      -5.608   8.993  67.001  1.00  0.00    -0.041 NA 
HETATM    9  C   UNL     1      -5.948   8.411  65.803  1.00  0.00    -0.048 A  
HETATM   10  H   UNL     1      -4.659   9.235  67.284  1.00  0.00     0.000 HD 
HETATM   11  C   UNL     1      -5.140   8.010  64.733  1.00  0.00    -0.032 A  
HETATM   12  C   UNL     1      -5.769   7.439  63.621  1.00  0.00    -0.041 A  
HETATM   13  C   UNL     1      -7.159   7.275  63.571  1.00  0.00    -0.066 A  
HETATM   14  C   UNL     1      -7.940   7.666  64.673  1.00  0.00    -0.136 A  
HETATM   15  C   UNL     1      -7.332   8.250  65.805  1.00  0.00    -0.072 A  
BRANCH  13  16
HETATM   16  C   UNL     1      -7.812   6.672  62.348  1.00  0.00    -0.103 C  
BRANCH  16  17
HETATM   17  C   UNL     1      -8.111   5.181  62.500  1.00  0.00    -0.090 C  
HETATM   18  C   UNL     1      -7.306   4.477  63.576  1.00  0.00    -0.054 C  
HETATM   19  O   UNL     1      -8.152   3.386  63.974  1.00  0.00    -0.084 OA 
HETATM   20  C   UNL     1      -9.433   3.710  63.624  1.00  0.00    -0.132 C  
HETATM   21  N   UNL     1      -9.444   4.893  62.929  1.00  0.00     0.085 NA 
HETATM   22  O   UNL     1     -10.415   3.028  63.856  1.00  0.00    -0.190 OA 
ENDBRANCH  16  17
ENDBRANCH  13  16
ENDBRANCH   5   6
ENDBRANCH   4   5
ENDBRANCH   2   4
TORSDOF 5
ENDMDL
