MODEL        1
REMARK 921   NORMALIZED FREE ENERGY PREDICTED BY IDOCK:   -7.12 KCAL/MOL
REMARK 922        TOTAL FREE ENERGY PREDICTED BY IDOCK:   -9.21 KCAL/MOL
REMARK 923 INTER-LIGAND FREE ENERGY PREDICTED BY IDOCK:   -8.36 KCAL/MOL
REMARK 924 INTRA-LIGAND FREE ENERGY PREDICTED BY IDOCK:   -0.84 KCAL/MOL
REMARK 927      BINDING AFFINITY PREDICTED BY RF-SCORE:    0.00 PKD
ROOT
HETATM    1  C   UNL     1      -7.257  17.594  68.727  1.00  0.00    -0.268 C  
HETATM    2  N   UNL     1      -8.699  17.599  68.551  1.00  0.00    -0.286 N  
HETATM    3  C   UNL     1      -9.383  16.466  69.003  1.00  0.00    -0.248 C  
HETATM    4  C   UNL     1      -9.353  18.882  68.356  1.00  0.00    -0.350 C  
HETATM    5  O   UNL     1      -8.777  15.496  69.459  1.00  0.00    -0.261 OA 
ENDROOT
BRANCH   3   6
HETATM    6  C   UNL     1     -10.907  16.494  68.875  1.00  0.00    -0.336 C  
BRANCH   6   7
HETATM    7  C   UNL     1     -11.523  15.233  69.389  1.00  0.00    -0.315 A  
HETATM    8  C   UNL     1     -11.802  14.010  68.788  1.00  0.00    -0.361 A  
HETATM    9  N   UNL     1     -12.513  13.201  69.650  1.00  0.00    -0.041 NA 
HETATM   10  N   UNL     1     -11.962  15.096  70.695  1.00  0.00    -0.297 NA 
HETATM   11  C   UNL     1     -12.594  13.862  70.781  1.00  0.00    -0.354 A  
HETATM   12  C   UNL     1     -11.857  15.973  71.780  1.00  0.00    -0.519 A  
HETATM   13  C   UNL     1     -12.299  16.524  74.170  1.00  0.00    -0.488 C  
HETATM   14  C   UNL     1     -13.195  13.521  72.024  1.00  0.00    -0.529 A  
HETATM   15  C   UNL     1     -12.401  15.641  72.967  1.00  0.00    -0.570 A  
HETATM   16  C   UNL     1     -13.111  14.367  73.071  1.00  0.00    -0.581 A  
BRANCH   8  17
HETATM   17  C   UNL     1     -11.491  13.605  67.422  1.00  0.00    -0.365 A  
HETATM   18  C   UNL     1      -9.955  12.548  65.852  1.00  0.00    -0.269 A  
HETATM   19  C   UNL     1     -10.881  12.690  64.813  1.00  0.00    -0.332 A  
HETATM   20  C   UNL     1     -12.084  13.350  65.070  1.00  0.00    -0.436 A  
HETATM   21  C   UNL     1     -12.374  13.816  66.357  1.00  0.00    -0.460 A  
HETATM   22  C   UNL     1     -10.259  12.999  67.143  1.00  0.00    -0.243 A  
HETATM   23  C   UNL     1     -10.575  12.156  63.445  1.00  0.00    -0.454 C  
ENDBRANCH   8  17
ENDBRANCH   6   7
ENDBRANCH   3   6
TORSDOF 3
ENDMDL
MODEL        2
REMARK 921   NORMALIZED FREE ENERGY PREDICTED BY IDOCK:   -7.03 KCAL/MOL
REMARK 922        TOTAL FREE ENERGY PREDICTED BY IDOCK:   -9.11 KCAL/MOL
REMARK 923 INTER-LIGAND FREE ENERGY PREDICTED BY IDOCK:   -8.55 KCAL/MOL
REMARK 924 INTRA-LIGAND FREE ENERGY PREDICTED BY IDOCK:   -0.56 KCAL/MOL
REMARK 927      BINDING AFFINITY PREDICTED BY RF-SCORE:    0.00 PKD
ROOT
HETATM    1  C   UNL     1      -9.134   9.289  70.821  1.00  0.00    -0.244 C  
HETATM    2  N   UNL     1     -10.448   9.787  70.454  1.00  0.00    -0.281 N  
HETATM    3  C   UNL     1     -10.489  10.716  69.410  1.00  0.00    -0.225 C  
HETATM    4  C   UNL     1     -11.604   9.000  70.847  1.00  0.00    -0.290 C  
HETATM    5  O   UNL     1      -9.456  11.134  68.888  1.00  0.00    -0.188 OA 
ENDROOT
BRANCH   3   6
HETATM    6  C   UNL     1     -11.876  11.198  68.980  1.00  0.00    -0.418 C  
BRANCH   6   7
HETATM    7  C   UNL     1     -11.815  12.548  68.343  1.00  0.00    -0.304 A  
HETATM    8  C   UNL     1     -11.922  13.836  68.858  1.00  0.00    -0.359 A  
HETATM    9  N   UNL     1     -11.942  14.763  67.836  1.00  0.00    -0.295 NA 
HETATM   10  N   UNL     1     -11.627  12.723  66.982  1.00  0.00    -0.340 NA 
HETATM   11  C   UNL     1     -11.760  14.082  66.729  1.00  0.00    -0.407 A  
HETATM   12  C   UNL     1     -11.369  11.783  65.978  1.00  0.00    -0.273 A  
HETATM   13  C   UNL     1     -10.960  11.233  63.582  1.00  0.00    -0.369 C  
HETATM   14  C   UNL     1     -11.675  14.505  65.374  1.00  0.00    -0.354 A  
HETATM   15  C   UNL     1     -11.261  12.184  64.696  1.00  0.00    -0.374 A  
HETATM   16  C   UNL     1     -11.441  13.604  64.397  1.00  0.00    -0.410 A  
BRANCH   8  17
HETATM   17  C   UNL     1     -12.078  14.218  70.257  1.00  0.00    -0.403 A  
HETATM   18  C   UNL     1     -11.542  15.744  72.080  1.00  0.00    -0.534 A  
HETATM   19  C   UNL     1     -12.434  15.080  72.930  1.00  0.00    -0.491 A  
HETATM   20  C   UNL     1     -13.095  13.945  72.456  1.00  0.00    -0.533 A  
HETATM   21  C   UNL     1     -12.903  13.513  71.140  1.00  0.00    -0.387 A  
HETATM   22  C   UNL     1     -11.369  15.318  70.757  1.00  0.00    -0.365 A  
HETATM   23  C   UNL     1     -12.658  15.572  74.329  1.00  0.00    -0.704 C  
ENDBRANCH   8  17
ENDBRANCH   6   7
ENDBRANCH   3   6
TORSDOF 3
ENDMDL
MODEL        3
REMARK 921   NORMALIZED FREE ENERGY PREDICTED BY IDOCK:   -6.93 KCAL/MOL
REMARK 922        TOTAL FREE ENERGY PREDICTED BY IDOCK:   -8.99 KCAL/MOL
REMARK 923 INTER-LIGAND FREE ENERGY PREDICTED BY IDOCK:   -8.10 KCAL/MOL
REMARK 924 INTRA-LIGAND FREE ENERGY PREDICTED BY IDOCK:   -0.89 KCAL/MOL
REMARK 927      BINDING AFFINITY PREDICTED BY RF-SCORE:    0.00 PKD
ROOT
HETATM    1  C   UNL     1     -12.910  11.921  63.598  1.00  0.00    -0.305 C  
HETATM    2  N   UNL     1     -11.748  12.777  63.759  1.00  0.00    -0.453 N  
HETATM    3  C   UNL     1     -11.924  13.922  64.542  1.00  0.00    -0.437 C  
HETATM    4  C   UNL     1     -10.440  12.197  63.504  1.00  0.00    -0.454 C  
HETATM    5  O   UNL     1     -13.027  14.213  65.005  1.00  0.00    -0.721 OA 
ENDROOT
BRANCH   3   6
HETATM    6  C   UNL     1     -10.687  14.793  64.764  1.00  0.00    -0.380 C  
BRANCH   6   7
HETATM    7  C   UNL     1     -10.467  15.074  66.215  1.00  0.00    -0.304 A  
HETATM    8  C   UNL     1     -10.325  14.243  67.323  1.00  0.00    -0.260 A  
HETATM    9  N   UNL     1     -10.284  14.990  68.482  1.00  0.00    -0.222 NA 
HETATM   10  N   UNL     1     -10.368  16.360  66.720  1.00  0.00    -0.291 NA 
HETATM   11  C   UNL     1     -10.306  16.246  68.103  1.00  0.00    -0.277 A  
HETATM   12  C   UNL     1     -10.348  17.591  66.056  1.00  0.00    -0.306 A  
HETATM   13  C   UNL     1     -10.233  20.080  66.113  1.00  0.00    -0.589 C  
HETATM   14  C   UNL     1     -10.269  17.452  68.856  1.00  0.00    -0.352 A  
HETATM   15  C   UNL     1     -10.286  18.735  66.765  1.00  0.00    -0.439 A  
HETATM   16  C   UNL     1     -10.264  18.644  68.224  1.00  0.00    -0.423 A  
BRANCH   8  17
HETATM   17  C   UNL     1     -10.301  12.785  67.336  1.00  0.00    -0.222 A  
HETATM   18  C   UNL     1     -11.465  10.677  67.712  1.00  0.00    -0.219 A  
HETATM   19  C   UNL     1     -10.352   9.956  67.267  1.00  0.00    -0.303 A  
HETATM   20  C   UNL     1      -9.193  10.653  66.920  1.00  0.00    -0.172 A  
HETATM   21  C   UNL     1      -9.167  12.050  66.972  1.00  0.00    -0.195 A  
HETATM   22  C   UNL     1     -11.439  12.078  67.744  1.00  0.00    -0.394 A  
HETATM   23  C   UNL     1     -10.403   8.459  67.182  1.00  0.00    -0.381 C  
ENDBRANCH   8  17
ENDBRANCH   6   7
ENDBRANCH   3   6
TORSDOF 3
ENDMDL
MODEL        4
REMARK 921   NORMALIZED FREE ENERGY PREDICTED BY IDOCK:   -6.89 KCAL/MOL
REMARK 922        TOTAL FREE ENERGY PREDICTED BY IDOCK:   -8.94 KCAL/MOL
REMARK 923 INTER-LIGAND FREE ENERGY PREDICTED BY IDOCK:   -8.21 KCAL/MOL
REMARK 924 INTRA-LIGAND FREE ENERGY PREDICTED BY IDOCK:   -0.73 KCAL/MOL
REMARK 927      BINDING AFFINITY PREDICTED BY RF-SCORE:    0.00 PKD
ROOT
HETATM    1  C   UNL     1      -8.449  16.100  66.382  1.00  0.00    -0.334 C  
HETATM    2  N   UNL     1      -9.769  15.494  66.347  1.00  0.00    -0.263 N  
HETATM    3  C   UNL     1     -10.344  15.190  67.584  1.00  0.00    -0.248 C  
HETATM    4  C   UNL     1     -10.556  15.656  65.136  1.00  0.00    -0.424 C  
HETATM    5  O   UNL     1      -9.726  15.366  68.635  1.00  0.00    -0.197 OA 
ENDROOT
BRANCH   3   6
HETATM    6  C   UNL     1     -11.758  14.608  67.554  1.00  0.00    -0.403 C  
BRANCH   6   7
HETATM    7  C   UNL     1     -11.809  13.256  68.190  1.00  0.00    -0.353 A  
HETATM    8  C   UNL     1     -11.509  11.983  67.717  1.00  0.00    -0.325 A  
HETATM    9  N   UNL     1     -11.856  11.028  68.651  1.00  0.00    -0.484 NA 
HETATM   10  N   UNL     1     -12.219  13.062  69.499  1.00  0.00    -0.203 NA 
HETATM   11  C   UNL     1     -12.272  11.690  69.705  1.00  0.00    -0.219 A  
HETATM   12  C   UNL     1     -12.556  13.994  70.487  1.00  0.00    -0.329 A  
HETATM   13  C   UNL     1     -13.321  14.515  72.801  1.00  0.00    -0.600 C  
HETATM   14  C   UNL     1     -12.739  11.238  70.970  1.00  0.00    -0.457 A  
HETATM   15  C   UNL     1     -12.973  13.569  71.695  1.00  0.00    -0.447 A  
HETATM   16  C   UNL     1     -13.079  12.129  71.924  1.00  0.00    -0.475 A  
BRANCH   8  17
HETATM   17  C   UNL     1     -10.981  11.629  66.404  1.00  0.00    -0.345 A  
HETATM   18  C   UNL     1      -9.413  10.335  65.060  1.00  0.00    -0.314 A  
HETATM   19  C   UNL     1      -9.993  10.814  63.880  1.00  0.00    -0.404 A  
HETATM   20  C   UNL     1     -11.023  11.752  63.969  1.00  0.00    -0.451 A  
HETATM   21  C   UNL     1     -11.497  12.165  65.219  1.00  0.00    -0.388 A  
HETATM   22  C   UNL     1      -9.905  10.737  66.308  1.00  0.00    -0.262 A  
HETATM   23  C   UNL     1      -9.501  10.338  62.545  1.00  0.00    -0.281 C  
ENDBRANCH   8  17
ENDBRANCH   6   7
ENDBRANCH   3   6
TORSDOF 3
ENDMDL
MODEL        5
REMARK 921   NORMALIZED FREE ENERGY PREDICTED BY IDOCK:   -6.87 KCAL/MOL
REMARK 922        TOTAL FREE ENERGY PREDICTED BY IDOCK:   -8.92 KCAL/MOL
REMARK 923 INTER-LIGAND FREE ENERGY PREDICTED BY IDOCK:   -8.21 KCAL/MOL
REMARK 924 INTRA-LIGAND FREE ENERGY PREDICTED BY IDOCK:   -0.71 KCAL/MOL
REMARK 927      BINDING AFFINITY PREDICTED BY RF-SCORE:    0.00 PKD
ROOT
HETATM    1  C   UNL     1     -11.452   8.478  70.515  1.00  0.00    -0.182 C  
HETATM    2  N   UNL     1     -10.590   9.502  69.952  1.00  0.00    -0.225 N  
HETATM    3  C   UNL     1     -11.230  10.589  69.349  1.00  0.00    -0.269 C  
HETATM    4  C   UNL     1      -9.217   9.564  70.423  1.00  0.00    -0.253 C  
HETATM    5  O   UNL     1     -12.456  10.629  69.247  1.00  0.00    -0.304 OA 
ENDROOT
BRANCH   3   6
HETATM    6  C   UNL     1     -10.326  11.698  68.808  1.00  0.00    -0.213 C  
BRANCH   6   7
HETATM    7  C   UNL     1     -11.115  12.754  68.104  1.00  0.00    -0.256 A  
HETATM    8  C   UNL     1     -11.855  13.838  68.565  1.00  0.00    -0.370 A  
HETATM    9  N   UNL     1     -12.523  14.443  67.520  1.00  0.00    -0.000 NA 
HETATM   10  N   UNL     1     -11.237  12.799  66.725  1.00  0.00    -0.281 NA 
HETATM   11  C   UNL     1     -12.139  13.814  66.434  1.00  0.00    -0.444 A  
HETATM   12  C   UNL     1     -10.633  12.012  65.739  1.00  0.00    -0.263 A  
HETATM   13  C   UNL     1     -10.305  11.422  63.340  1.00  0.00    -0.458 C  
HETATM   14  C   UNL     1     -12.484  14.009  65.068  1.00  0.00    -0.446 A  
HETATM   15  C   UNL     1     -10.937  12.212  64.441  1.00  0.00    -0.375 A  
HETATM   16  C   UNL     1     -11.918  13.245  64.112  1.00  0.00    -0.505 A  
BRANCH   8  17
HETATM   17  C   UNL     1     -12.012  14.278  69.946  1.00  0.00    -0.397 A  
HETATM   18  C   UNL     1     -11.590  15.947  71.671  1.00  0.00    -0.541 A  
HETATM   19  C   UNL     1     -12.384  15.242  72.582  1.00  0.00    -0.482 A  
HETATM   20  C   UNL     1     -12.935  14.021  72.189  1.00  0.00    -0.458 A  
HETATM   21  C   UNL     1     -12.735  13.540  70.891  1.00  0.00    -0.366 A  
HETATM   22  C   UNL     1     -11.409  15.470  70.366  1.00  0.00    -0.360 A  
HETATM   23  C   UNL     1     -12.621  15.783  73.961  1.00  0.00    -0.758 C  
ENDBRANCH   8  17
ENDBRANCH   6   7
ENDBRANCH   3   6
TORSDOF 3
ENDMDL
MODEL        6
REMARK 921   NORMALIZED FREE ENERGY PREDICTED BY IDOCK:   -6.77 KCAL/MOL
REMARK 922        TOTAL FREE ENERGY PREDICTED BY IDOCK:   -8.80 KCAL/MOL
REMARK 923 INTER-LIGAND FREE ENERGY PREDICTED BY IDOCK:   -7.93 KCAL/MOL
REMARK 924 INTRA-LIGAND FREE ENERGY PREDICTED BY IDOCK:   -0.86 KCAL/MOL
REMARK 927      BINDING AFFINITY PREDICTED BY RF-SCORE:    0.00 PKD
ROOT
HETATM    1  C   UNL     1     -10.318   8.995  71.779  1.00  0.00    -0.337 C  
HETATM    2  N   UNL     1     -11.358   9.835  71.210  1.00  0.00    -0.380 N  
HETATM    3  C   UNL     1     -11.102  10.365  69.942  1.00  0.00    -0.305 C  
HETATM    4  C   UNL     1     -12.701   9.708  71.750  1.00  0.00    -0.420 C  
HETATM    5  O   UNL     1     -10.023  10.179  69.379  1.00  0.00    -0.204 OA 
ENDROOT
BRANCH   3   6
HETATM    6  C   UNL     1     -12.219  11.201  69.315  1.00  0.00    -0.295 C  
BRANCH   6   7
HETATM    7  C   UNL     1     -11.759  12.589  69.007  1.00  0.00    -0.318 A  
HETATM    8  C   UNL     1     -11.170  13.156  67.880  1.00  0.00    -0.270 A  
HETATM    9  N   UNL     1     -10.795  14.459  68.137  1.00  0.00    -0.239 NA 
HETATM   10  N   UNL     1     -11.862  13.629  69.915  1.00  0.00    -0.315 NA 
HETATM   11  C   UNL     1     -11.220  14.723  69.350  1.00  0.00    -0.284 A  
HETATM   12  C   UNL     1     -12.455  13.665  71.182  1.00  0.00    -0.359 A  
HETATM   13  C   UNL     1     -13.036  14.903  73.266  1.00  0.00    -0.635 C  
HETATM   14  C   UNL     1     -11.133  15.906  70.135  1.00  0.00    -0.369 A  
HETATM   15  C   UNL     1     -12.398  14.793  71.918  1.00  0.00    -0.417 A  
HETATM   16  C   UNL     1     -11.689  15.946  71.363  1.00  0.00    -0.530 A  
BRANCH   8  17
HETATM   17  C   UNL     1     -10.885  12.501  66.609  1.00  0.00    -0.277 A  
HETATM   18  C   UNL     1     -11.556  11.991  64.322  1.00  0.00    -0.435 A  
HETATM   19  C   UNL     1     -10.334  11.354  64.080  1.00  0.00    -0.418 A  
HETATM   20  C   UNL     1      -9.418  11.237  65.127  1.00  0.00    -0.242 A  
HETATM   21  C   UNL     1      -9.701  11.790  66.380  1.00  0.00    -0.234 A  
HETATM   22  C   UNL     1     -11.826  12.560  65.573  1.00  0.00    -0.491 A  
HETATM   23  C   UNL     1     -10.026  10.794  62.723  1.00  0.00    -0.161 C  
ENDBRANCH   8  17
ENDBRANCH   6   7
ENDBRANCH   3   6
TORSDOF 3
ENDMDL
MODEL        7
REMARK 921   NORMALIZED FREE ENERGY PREDICTED BY IDOCK:   -6.63 KCAL/MOL
REMARK 922        TOTAL FREE ENERGY PREDICTED BY IDOCK:   -8.63 KCAL/MOL
REMARK 923 INTER-LIGAND FREE ENERGY PREDICTED BY IDOCK:   -8.07 KCAL/MOL
REMARK 924 INTRA-LIGAND FREE ENERGY PREDICTED BY IDOCK:   -0.56 KCAL/MOL
REMARK 927      BINDING AFFINITY PREDICTED BY RF-SCORE:    0.00 PKD
ROOT
HETATM    1  C   UNL     1     -12.862  15.703  73.943  1.00  0.00    -0.514 C  
HETATM    2  N   UNL     1     -13.298  15.387  72.594  1.00  0.00    -0.455 N  
HETATM    3  C   UNL     1     -12.456  15.802  71.557  1.00  0.00    -0.455 C  
HETATM    4  C   UNL     1     -14.277  14.326  72.431  1.00  0.00    -0.396 C  
HETATM    5  O   UNL     1     -11.441  16.459  71.786  1.00  0.00    -0.380 OA 
ENDROOT
BRANCH   3   6
HETATM    6  C   UNL     1     -12.882  15.418  70.139  1.00  0.00    -0.196 C  
BRANCH   6   7
HETATM    7  C   UNL     1     -11.814  14.642  69.438  1.00  0.00    -0.329 A  
HETATM    8  C   UNL     1     -10.798  15.018  68.565  1.00  0.00    -0.250 A  
HETATM    9  N   UNL     1     -10.151  13.905  68.070  1.00  0.00    -0.238 NA 
HETATM   10  N   UNL     1     -11.678  13.270  69.572  1.00  0.00    -0.311 NA 
HETATM   11  C   UNL     1     -10.685  12.875  68.684  1.00  0.00    -0.247 A  
HETATM   12  C   UNL     1     -12.367  12.370  70.392  1.00  0.00    -0.227 A  
HETATM   13  C   UNL     1     -12.773  10.046  71.194  1.00  0.00    -0.484 C  
HETATM   14  C   UNL     1     -10.411  11.483  68.590  1.00  0.00    -0.226 A  
HETATM   15  C   UNL     1     -12.090  11.053  70.325  1.00  0.00    -0.448 A  
HETATM   16  C   UNL     1     -11.080  10.607  69.367  1.00  0.00    -0.315 A  
BRANCH   8  17
HETATM   17  C   UNL     1     -10.464  16.369  68.129  1.00  0.00    -0.302 A  
HETATM   18  C   UNL     1     -10.197  17.975  66.314  1.00  0.00    -0.381 A  
HETATM   19  C   UNL     1      -9.942  19.002  67.229  1.00  0.00    -0.410 A  
HETATM   20  C   UNL     1      -9.884  18.692  68.590  1.00  0.00    -0.427 A  
HETATM   21  C   UNL     1     -10.125  17.386  69.028  1.00  0.00    -0.295 A  
HETATM   22  C   UNL     1     -10.457  16.673  66.761  1.00  0.00    -0.261 A  
HETATM   23  C   UNL     1      -9.718  20.406  66.751  1.00  0.00    -0.528 C  
ENDBRANCH   8  17
ENDBRANCH   6   7
ENDBRANCH   3   6
TORSDOF 3
ENDMDL
MODEL        8
REMARK 921   NORMALIZED FREE ENERGY PREDICTED BY IDOCK:   -6.60 KCAL/MOL
REMARK 922        TOTAL FREE ENERGY PREDICTED BY IDOCK:   -8.61 KCAL/MOL
REMARK 923 INTER-LIGAND FREE ENERGY PREDICTED BY IDOCK:   -8.16 KCAL/MOL
REMARK 924 INTRA-LIGAND FREE ENERGY PREDICTED BY IDOCK:   -0.44 KCAL/MOL
REMARK 927      BINDING AFFINITY PREDICTED BY RF-SCORE:    0.00 PKD
ROOT
HETATM    1  C   UNL     1      -8.466  18.206  67.107  1.00  0.00    -0.243 C  
HETATM    2  N   UNL     1      -9.843  17.748  67.161  1.00  0.00    -0.299 N  
HETATM    3  C   UNL     1     -10.043  16.432  67.590  1.00  0.00    -0.263 C  
HETATM    4  C   UNL     1     -10.890  18.755  67.210  1.00  0.00    -0.340 C  
HETATM    5  O   UNL     1      -9.091  15.692  67.839  1.00  0.00    -0.184 OA 
ENDROOT
BRANCH   3   6
HETATM    6  C   UNL     1     -11.495  15.966  67.706  1.00  0.00    -0.128 C  
BRANCH   6   7
HETATM    7  C   UNL     1     -11.579  14.517  68.061  1.00  0.00    -0.336 A  
HETATM    8  C   UNL     1     -11.779  13.855  69.269  1.00  0.00    -0.334 A  
HETATM    9  N   UNL     1     -11.632  12.493  69.101  1.00  0.00    -0.301 NA 
HETATM   10  N   UNL     1     -11.446  13.509  67.121  1.00  0.00    -0.321 NA 
HETATM   11  C   UNL     1     -11.440  12.307  67.816  1.00  0.00    -0.329 A  
HETATM   12  C   UNL     1     -11.316  13.583  65.729  1.00  0.00    -0.305 A  
HETATM   13  C   UNL     1     -11.040  12.468  63.518  1.00  0.00    -0.497 C  
HETATM   14  C   UNL     1     -11.243  11.117  67.063  1.00  0.00    -0.291 A  
HETATM   15  C   UNL     1     -11.156  12.456  65.009  1.00  0.00    -0.344 A  
HETATM   16  C   UNL     1     -11.102  11.180  65.722  1.00  0.00    -0.084 A  
BRANCH   8  17
HETATM   17  C   UNL     1     -12.028  14.455  70.574  1.00  0.00    -0.395 A  
HETATM   18  C   UNL     1     -12.920  14.252  72.833  1.00  0.00    -0.548 A  
HETATM   19  C   UNL     1     -12.434  15.521  73.165  1.00  0.00    -0.576 A  
HETATM   20  C   UNL     1     -11.803  16.279  72.177  1.00  0.00    -0.585 A  
HETATM   21  C   UNL     1     -11.620  15.755  70.893  1.00  0.00    -0.440 A  
HETATM   22  C   UNL     1     -12.716  13.724  71.552  1.00  0.00    -0.432 A  
HETATM   23  C   UNL     1     -12.605  16.060  74.554  1.00  0.00    -0.588 C  
ENDBRANCH   8  17
ENDBRANCH   6   7
ENDBRANCH   3   6
TORSDOF 3
ENDMDL
MODEL        9
REMARK 921   NORMALIZED FREE ENERGY PREDICTED BY IDOCK:   -6.58 KCAL/MOL
REMARK 922        TOTAL FREE ENERGY PREDICTED BY IDOCK:   -8.57 KCAL/MOL
REMARK 923 INTER-LIGAND FREE ENERGY PREDICTED BY IDOCK:   -7.61 KCAL/MOL
REMARK 924 INTRA-LIGAND FREE ENERGY PREDICTED BY IDOCK:   -0.96 KCAL/MOL
REMARK 927      BINDING AFFINITY PREDICTED BY RF-SCORE:    0.00 PKD
ROOT
HETATM    1  C   UNL     1     -11.904  14.073  64.665  1.00  0.00    -0.417 C  
HETATM    2  N   UNL     1     -11.055  14.291  65.823  1.00  0.00    -0.304 N  
HETATM    3  C   UNL     1     -11.262  13.441  66.913  1.00  0.00    -0.308 C  
HETATM    4  C   UNL     1      -9.813  15.019  65.623  1.00  0.00    -0.345 C  
HETATM    5  O   UNL     1     -12.166  12.605  66.906  1.00  0.00    -0.489 OA 
ENDROOT
BRANCH   3   6
HETATM    6  C   UNL     1     -10.329  13.628  68.110  1.00  0.00    -0.245 C  
BRANCH   6   7
HETATM    7  C   UNL     1     -10.968  14.452  69.181  1.00  0.00    -0.265 A  
HETATM    8  C   UNL     1     -10.964  15.818  69.444  1.00  0.00    -0.296 A  
HETATM    9  N   UNL     1     -11.593  16.079  70.644  1.00  0.00    -0.388 NA 
HETATM   10  N   UNL     1     -11.743  13.898  70.186  1.00  0.00    -0.268 NA 
HETATM   11  C   UNL     1     -12.054  14.926  71.068  1.00  0.00    -0.321 A  
HETATM   12  C   UNL     1     -12.166  12.578  70.377  1.00  0.00    -0.286 A  
HETATM   13  C   UNL     1     -13.395  10.870  71.713  1.00  0.00    -0.413 C  
HETATM   14  C   UNL     1     -12.794  14.585  72.233  1.00  0.00    -0.427 A  
HETATM   15  C   UNL     1     -12.891  12.257  71.467  1.00  0.00    -0.384 A  
HETATM   16  C   UNL     1     -13.194  13.312  72.433  1.00  0.00    -0.539 A  
BRANCH   8  17
HETATM   17  C   UNL     1     -10.334  16.869  68.652  1.00  0.00    -0.332 A  
HETATM   18  C   UNL     1      -8.302  17.961  67.867  1.00  0.00    -0.247 A  
HETATM   19  C   UNL     1      -9.048  18.810  67.042  1.00  0.00    -0.299 A  
HETATM   20  C   UNL     1     -10.442  18.727  67.077  1.00  0.00    -0.474 A  
HETATM   21  C   UNL     1     -11.073  17.778  67.887  1.00  0.00     0.070 A  
HETATM   22  C   UNL     1      -8.939  16.999  68.661  1.00  0.00    -0.267 A  
HETATM   23  C   UNL     1      -8.360  19.801  66.151  1.00  0.00    -0.368 C  
ENDBRANCH   8  17
ENDBRANCH   6   7
ENDBRANCH   3   6
TORSDOF 3
ENDMDL
MODEL       10
REMARK 921   NORMALIZED FREE ENERGY PREDICTED BY IDOCK:   -6.57 KCAL/MOL
REMARK 922        TOTAL FREE ENERGY PREDICTED BY IDOCK:   -8.56 KCAL/MOL
REMARK 923 INTER-LIGAND FREE ENERGY PREDICTED BY IDOCK:   -7.98 KCAL/MOL
REMARK 924 INTRA-LIGAND FREE ENERGY PREDICTED BY IDOCK:   -0.59 KCAL/MOL
REMARK 927      BINDING AFFINITY PREDICTED BY RF-SCORE:    0.00 PKD
ROOT
HETATM    1  C   UNL     1     -10.812  11.738  64.826  1.00  0.00    -0.302 C  
HETATM    2  N   UNL     1     -10.105  12.223  65.998  1.00  0.00    -0.243 N  
HETATM    3  C   UNL     1     -10.863  12.941  66.928  1.00  0.00    -0.257 C  
HETATM    4  C   UNL     1      -8.847  11.582  66.342  1.00  0.00    -0.193 C  
HETATM    5  O   UNL     1     -12.048  13.200  66.718  1.00  0.00    -0.382 OA 
ENDROOT
BRANCH   3   6
HETATM    6  C   UNL     1     -10.136  13.400  68.192  1.00  0.00    -0.244 C  
BRANCH   6   7
HETATM    7  C   UNL     1     -11.053  14.130  69.118  1.00  0.00    -0.262 A  
HETATM    8  C   UNL     1     -11.352  15.480  69.276  1.00  0.00    -0.325 A  
HETATM    9  N   UNL     1     -12.165  15.669  70.375  1.00  0.00    -0.398 NA 
HETATM   10  N   UNL     1     -11.824  13.482  70.069  1.00  0.00    -0.313 NA 
HETATM   11  C   UNL     1     -12.439  14.469  70.830  1.00  0.00    -0.351 A  
HETATM   12  C   UNL     1     -12.000  12.115  70.311  1.00  0.00    -0.305 A  
HETATM   13  C   UNL     1     -13.026  10.263  71.625  1.00  0.00    -0.570 C  
HETATM   14  C   UNL     1     -13.238  14.044  71.927  1.00  0.00    -0.477 A  
HETATM   15  C   UNL     1     -12.778  11.709  71.333  1.00  0.00    -0.445 A  
HETATM   16  C   UNL     1     -13.401  12.728  72.176  1.00  0.00    -0.593 A  
BRANCH   8  17
HETATM   17  C   UNL     1     -10.846  16.595  68.483  1.00  0.00    -0.356 A  
HETATM   18  C   UNL     1     -10.402  17.574  66.296  1.00  0.00    -0.335 A  
HETATM   19  C   UNL     1      -9.990  18.773  66.889  1.00  0.00    -0.382 A  
HETATM   20  C   UNL     1      -9.945  18.852  68.282  1.00  0.00    -0.431 A  
HETATM   21  C   UNL     1     -10.353  17.768  69.066  1.00  0.00    -0.234 A  
HETATM   22  C   UNL     1     -10.828  16.498  67.086  1.00  0.00    -0.142 A  
HETATM   23  C   UNL     1      -9.587  19.941  66.039  1.00  0.00    -0.435 C  
ENDBRANCH   8  17
ENDBRANCH   6   7
ENDBRANCH   3   6
TORSDOF 3
ENDMDL
MODEL       11
REMARK 921   NORMALIZED FREE ENERGY PREDICTED BY IDOCK:   -6.54 KCAL/MOL
REMARK 922        TOTAL FREE ENERGY PREDICTED BY IDOCK:   -8.53 KCAL/MOL
REMARK 923 INTER-LIGAND FREE ENERGY PREDICTED BY IDOCK:   -7.86 KCAL/MOL
REMARK 924 INTRA-LIGAND FREE ENERGY PREDICTED BY IDOCK:   -0.67 KCAL/MOL
REMARK 927      BINDING AFFINITY PREDICTED BY RF-SCORE:    0.00 PKD
ROOT
HETATM    1  C   UNL     1     -11.042  11.932  64.692  1.00  0.00    -0.317 C  
HETATM    2  N   UNL     1     -10.299  12.320  65.878  1.00  0.00    -0.246 N  
HETATM    3  C   UNL     1     -11.013  13.017  66.857  1.00  0.00    -0.265 C  
HETATM    4  C   UNL     1      -9.066  11.606  66.167  1.00  0.00    -0.203 C  
HETATM    5  O   UNL     1     -12.188  13.340  66.680  1.00  0.00    -0.370 OA 
ENDROOT
BRANCH   3   6
HETATM    6  C   UNL     1     -10.249  13.374  68.133  1.00  0.00    -0.246 C  
BRANCH   6   7
HETATM    7  C   UNL     1     -11.116  14.107  69.105  1.00  0.00    -0.262 A  
HETATM    8  C   UNL     1     -11.370  15.461  69.302  1.00  0.00    -0.315 A  
HETATM    9  N   UNL     1     -12.143  15.646  70.430  1.00  0.00    -0.385 NA 
HETATM   10  N   UNL     1     -11.876  13.459  70.064  1.00  0.00    -0.311 NA 
HETATM   11  C   UNL     1     -12.438  14.444  70.866  1.00  0.00    -0.354 A  
HETATM   12  C   UNL     1     -12.083  12.092  70.280  1.00  0.00    -0.302 A  
HETATM   13  C   UNL     1     -13.122  10.240  71.584  1.00  0.00    -0.553 C  
HETATM   14  C   UNL     1     -13.214  14.017  71.978  1.00  0.00    -0.499 A  
HETATM   15  C   UNL     1     -12.841  11.684  71.317  1.00  0.00    -0.430 A  
HETATM   16  C   UNL     1     -13.408  12.701  72.202  1.00  0.00    -0.570 A  
BRANCH   8  17
HETATM   17  C   UNL     1     -10.857  16.580  68.519  1.00  0.00    -0.349 A  
HETATM   18  C   UNL     1      -9.767  18.758  68.450  1.00  0.00    -0.421 A  
HETATM   19  C   UNL     1      -9.737  18.726  67.051  1.00  0.00    -0.340 A  
HETATM   20  C   UNL     1     -10.329  17.647  66.391  1.00  0.00    -0.345 A  
HETATM   21  C   UNL     1     -10.896  16.597  67.120  1.00  0.00    -0.126 A  
HETATM   22  C   UNL     1     -10.319  17.695  69.175  1.00  0.00    -0.202 A  
HETATM   23  C   UNL     1      -9.095  19.840  66.280  1.00  0.00    -0.444 C  
ENDBRANCH   8  17
ENDBRANCH   6   7
ENDBRANCH   3   6
TORSDOF 3
ENDMDL
MODEL       12
REMARK 921   NORMALIZED FREE ENERGY PREDICTED BY IDOCK:   -6.47 KCAL/MOL
REMARK 922        TOTAL FREE ENERGY PREDICTED BY IDOCK:   -8.45 KCAL/MOL
REMARK 923 INTER-LIGAND FREE ENERGY PREDICTED BY IDOCK:   -7.75 KCAL/MOL
REMARK 924 INTRA-LIGAND FREE ENERGY PREDICTED BY IDOCK:   -0.70 KCAL/MOL
REMARK 927      BINDING AFFINITY PREDICTED BY RF-SCORE:    0.00 PKD
ROOT
HETATM    1  C   UNL     1     -10.347  12.532  64.047  1.00  0.00    -0.404 C  
HETATM    2  N   UNL     1     -11.394  13.170  64.825  1.00  0.00    -0.313 N  
HETATM    3  C   UNL     1     -11.242  13.135  66.215  1.00  0.00    -0.301 C  
HETATM    4  C   UNL     1     -12.239  14.143  64.154  1.00  0.00    -0.390 C  
HETATM    5  O   UNL     1     -10.304  12.534  66.738  1.00  0.00    -0.224 OA 
ENDROOT
BRANCH   3   6
HETATM    6  C   UNL     1     -12.311  13.858  67.035  1.00  0.00    -0.287 C  
BRANCH   6   7
HETATM    7  C   UNL     1     -11.716  14.570  68.207  1.00  0.00    -0.335 A  
HETATM    8  C   UNL     1     -11.588  14.226  69.550  1.00  0.00    -0.301 A  
HETATM    9  N   UNL     1     -11.086  15.289  70.273  1.00  0.00    -0.276 NA 
HETATM   10  N   UNL     1     -11.144  15.827  68.106  1.00  0.00    -0.328 NA 
HETATM   11  C   UNL     1     -10.824  16.229  69.396  1.00  0.00    -0.331 A  
HETATM   12  C   UNL     1     -10.910  16.624  66.980  1.00  0.00    -0.091 A  
HETATM   13  C   UNL     1     -10.071  18.738  65.960  1.00  0.00    -0.353 C  
HETATM   14  C   UNL     1     -10.281  17.534  69.557  1.00  0.00     0.037 A  
HETATM   15  C   UNL     1     -10.370  17.850  67.126  1.00  0.00    -0.371 A  
HETATM   16  C   UNL     1     -10.065  18.315  68.478  1.00  0.00    -0.419 A  
BRANCH   8  17
HETATM   17  C   UNL     1     -11.984  12.974  70.183  1.00  0.00    -0.374 A  
HETATM   18  C   UNL     1     -13.262  11.812  71.903  1.00  0.00    -0.468 A  
HETATM   19  C   UNL     1     -12.884  10.571  71.379  1.00  0.00    -0.551 A  
HETATM   20  C   UNL     1     -12.003  10.538  70.297  1.00  0.00    -0.411 A  
HETATM   21  C   UNL     1     -11.547  11.727  69.720  1.00  0.00    -0.372 A  
HETATM   22  C   UNL     1     -12.818  13.000  71.308  1.00  0.00    -0.370 A  
HETATM   23  C   UNL     1     -13.406   9.302  71.985  1.00  0.00    -0.518 C  
ENDBRANCH   8  17
ENDBRANCH   6   7
ENDBRANCH   3   6
TORSDOF 3
ENDMDL
MODEL       13
REMARK 921   NORMALIZED FREE ENERGY PREDICTED BY IDOCK:   -6.43 KCAL/MOL
REMARK 922        TOTAL FREE ENERGY PREDICTED BY IDOCK:   -8.40 KCAL/MOL
REMARK 923 INTER-LIGAND FREE ENERGY PREDICTED BY IDOCK:   -7.76 KCAL/MOL
REMARK 924 INTRA-LIGAND FREE ENERGY PREDICTED BY IDOCK:   -0.64 KCAL/MOL
REMARK 927      BINDING AFFINITY PREDICTED BY RF-SCORE:    0.00 PKD
ROOT
HETATM    1  C   UNL     1     -14.115  15.652  72.759  1.00  0.00    -0.364 C  
HETATM    2  N   UNL     1     -12.800  15.210  72.328  1.00  0.00    -0.320 N  
HETATM    3  C   UNL     1     -12.468  15.459  70.994  1.00  0.00    -0.411 C  
HETATM    4  C   UNL     1     -11.798  14.970  73.353  1.00  0.00    -0.245 C  
HETATM    5  O   UNL     1     -13.281  15.964  70.219  1.00  0.00    -0.213 OA 
ENDROOT
BRANCH   3   6
HETATM    6  C   UNL     1     -11.062  15.049  70.553  1.00  0.00    -0.247 C  
BRANCH   6   7
HETATM    7  C   UNL     1     -11.078  14.392  69.211  1.00  0.00    -0.271 A  
HETATM    8  C   UNL     1     -11.300  13.078  68.810  1.00  0.00    -0.289 A  
HETATM    9  N   UNL     1     -11.065  12.941  67.457  1.00  0.00    -0.258 NA 
HETATM   10  N   UNL     1     -10.839  15.086  68.036  1.00  0.00    -0.262 NA 
HETATM   11  C   UNL     1     -10.797  14.147  67.014  1.00  0.00    -0.295 A  
HETATM   12  C   UNL     1     -10.644  16.455  67.820  1.00  0.00    -0.321 A  
HETATM   13  C   UNL     1     -10.190  18.360  66.279  1.00  0.00    -0.427 C  
HETATM   14  C   UNL     1     -10.492  14.617  65.707  1.00  0.00    -0.338 A  
HETATM   15  C   UNL     1     -10.381  16.907  66.579  1.00  0.00    -0.299 A  
HETATM   16  C   UNL     1     -10.289  15.933  65.492  1.00  0.00    -0.425 A  
BRANCH   8  17
HETATM   17  C   UNL     1     -11.650  11.943  69.657  1.00  0.00    -0.387 A  
HETATM   18  C   UNL     1     -11.269   9.627  70.313  1.00  0.00    -0.324 A  
HETATM   19  C   UNL     1     -12.201   9.742  71.350  1.00  0.00    -0.486 A  
HETATM   20  C   UNL     1     -12.903  10.941  71.494  1.00  0.00    -0.560 A  
HETATM   21  C   UNL     1     -12.639  12.020  70.644  1.00  0.00    -0.255 A  
HETATM   22  C   UNL     1     -10.996  10.718  69.477  1.00  0.00    -0.317 A  
HETATM   23  C   UNL     1     -12.451   8.590  72.277  1.00  0.00    -0.448 C  
ENDBRANCH   8  17
ENDBRANCH   6   7
ENDBRANCH   3   6
TORSDOF 3
ENDMDL
MODEL       14
REMARK 921   NORMALIZED FREE ENERGY PREDICTED BY IDOCK:   -6.39 KCAL/MOL
REMARK 922        TOTAL FREE ENERGY PREDICTED BY IDOCK:   -8.36 KCAL/MOL
REMARK 923 INTER-LIGAND FREE ENERGY PREDICTED BY IDOCK:   -7.64 KCAL/MOL
REMARK 924 INTRA-LIGAND FREE ENERGY PREDICTED BY IDOCK:   -0.72 KCAL/MOL
REMARK 927      BINDING AFFINITY PREDICTED BY RF-SCORE:    0.00 PKD
ROOT
HETATM    1  C   UNL     1     -12.161  14.339  64.450  1.00  0.00    -0.468 C  
HETATM    2  N   UNL     1     -11.459  14.505  65.710  1.00  0.00    -0.340 N  
HETATM    3  C   UNL     1     -11.580  13.460  66.631  1.00  0.00    -0.362 C  
HETATM    4  C   UNL     1     -10.369  15.466  65.756  1.00  0.00    -0.361 C  
HETATM    5  O   UNL     1     -12.302  12.490  66.401  1.00  0.00    -0.537 OA 
ENDROOT
BRANCH   3   6
HETATM    6  C   UNL     1     -10.793  13.605  67.934  1.00  0.00    -0.264 C  
BRANCH   6   7
HETATM    7  C   UNL     1     -11.198  12.574  68.937  1.00  0.00    -0.281 A  
HETATM    8  C   UNL     1     -10.936  11.211  69.044  1.00  0.00    -0.235 A  
HETATM    9  N   UNL     1     -11.659  10.661  70.082  1.00  0.00    -0.303 NA 
HETATM   10  N   UNL     1     -11.995  12.869  70.031  1.00  0.00    -0.340 NA 
HETATM   11  C   UNL     1     -12.279  11.663  70.659  1.00  0.00    -0.366 A  
HETATM   12  C   UNL     1     -12.487  14.098  70.484  1.00  0.00    -0.361 A  
HETATM   13  C   UNL     1     -13.826  15.425  72.114  1.00  0.00    -0.636 C  
HETATM   14  C   UNL     1     -13.150  11.702  71.783  1.00  0.00    -0.487 A  
HETATM   15  C   UNL     1     -13.291  14.141  71.565  1.00  0.00    -0.424 A  
HETATM   16  C   UNL     1     -13.641  12.881  72.219  1.00  0.00    -0.611 A  
BRANCH   8  17
HETATM   17  C   UNL     1     -10.094  10.403  68.169  1.00  0.00    -0.179 A  
HETATM   18  C   UNL     1      -9.910   8.749  66.388  1.00  0.00    -0.352 A  
HETATM   19  C   UNL     1      -8.518   8.897  66.363  1.00  0.00    -0.123 A  
HETATM   20  C   UNL     1      -7.916   9.750  67.289  1.00  0.00    -0.106 A  
HETATM   21  C   UNL     1      -8.697  10.479  68.191  1.00  0.00    -0.130 A  
HETATM   22  C   UNL     1     -10.688   9.497  67.280  1.00  0.00    -0.269 A  
HETATM   23  C   UNL     1      -7.692   8.136  65.369  1.00  0.00    -0.101 C  
ENDBRANCH   8  17
ENDBRANCH   6   7
ENDBRANCH   3   6
TORSDOF 3
ENDMDL
MODEL       15
REMARK 921   NORMALIZED FREE ENERGY PREDICTED BY IDOCK:   -6.23 KCAL/MOL
REMARK 922        TOTAL FREE ENERGY PREDICTED BY IDOCK:   -8.16 KCAL/MOL
REMARK 923 INTER-LIGAND FREE ENERGY PREDICTED BY IDOCK:   -7.46 KCAL/MOL
REMARK 924 INTRA-LIGAND FREE ENERGY PREDICTED BY IDOCK:   -0.71 KCAL/MOL
REMARK 927      BINDING AFFINITY PREDICTED BY RF-SCORE:    0.00 PKD
ROOT
HETATM    1  C   UNL     1     -10.637   6.980  69.908  1.00  0.00    -0.229 C  
HETATM    2  N   UNL     1      -9.986   8.260  69.693  1.00  0.00    -0.189 N  
HETATM    3  C   UNL     1     -10.154   8.838  68.431  1.00  0.00    -0.190 C  
HETATM    4  C   UNL     1      -9.612   9.034  70.865  1.00  0.00    -0.262 C  
HETATM    5  O   UNL     1     -10.765   8.250  67.538  1.00  0.00    -0.242 OA 
ENDROOT
BRANCH   3   6
HETATM    6  C   UNL     1      -9.520  10.214  68.221  1.00  0.00    -0.147 C  
BRANCH   6   7
HETATM    7  C   UNL     1     -10.355  11.072  67.327  1.00  0.00    -0.211 A  
HETATM    8  C   UNL     1     -11.353  12.007  67.585  1.00  0.00    -0.307 A  
HETATM    9  N   UNL     1     -11.929  12.435  66.407  1.00  0.00    -0.607 NA 
HETATM   10  N   UNL     1     -10.241  11.046  65.947  1.00  0.00    -0.247 NA 
HETATM   11  C   UNL     1     -11.251  11.856  65.444  1.00  0.00    -0.295 A  
HETATM   12  C   UNL     1      -9.339  10.357  65.129  1.00  0.00    -0.222 A  
HETATM   13  C   UNL     1      -8.493   9.761  62.861  1.00  0.00    -0.177 C  
HETATM   14  C   UNL     1     -11.382  11.933  64.030  1.00  0.00    -0.475 A  
HETATM   15  C   UNL     1      -9.443  10.450  63.789  1.00  0.00    -0.353 A  
HETATM   16  C   UNL     1     -10.525  11.262  63.233  1.00  0.00    -0.370 A  
BRANCH   8  17
HETATM   17  C   UNL     1     -11.828  12.455  68.890  1.00  0.00    -0.350 A  
HETATM   18  C   UNL     1     -12.365  14.287  70.404  1.00  0.00    -0.419 A  
HETATM   19  C   UNL     1     -12.854  13.388  71.358  1.00  0.00    -0.420 A  
HETATM   20  C   UNL     1     -12.766  12.019  71.098  1.00  0.00    -0.365 A  
HETATM   21  C   UNL     1     -12.242  11.561  69.884  1.00  0.00    -0.328 A  
HETATM   22  C   UNL     1     -11.860  13.824  69.182  1.00  0.00    -0.398 A  
HETATM   23  C   UNL     1     -13.444  13.889  72.642  1.00  0.00    -0.652 C  
ENDBRANCH   8  17
ENDBRANCH   6   7
ENDBRANCH   3   6
TORSDOF 3
ENDMDL
MODEL       16
REMARK 921   NORMALIZED FREE ENERGY PREDICTED BY IDOCK:   -6.14 KCAL/MOL
REMARK 922        TOTAL FREE ENERGY PREDICTED BY IDOCK:   -8.06 KCAL/MOL
REMARK 923 INTER-LIGAND FREE ENERGY PREDICTED BY IDOCK:   -7.70 KCAL/MOL
REMARK 924 INTRA-LIGAND FREE ENERGY PREDICTED BY IDOCK:   -0.37 KCAL/MOL
REMARK 927      BINDING AFFINITY PREDICTED BY RF-SCORE:    0.00 PKD
ROOT
HETATM    1  C   UNL     1     -13.631   7.453  71.672  1.00  0.00    -0.366 C  
HETATM    2  N   UNL     1     -12.384   8.169  71.466  1.00  0.00    -0.300 N  
HETATM    3  C   UNL     1     -12.493   9.486  71.011  1.00  0.00    -0.267 C  
HETATM    4  C   UNL     1     -11.197   7.669  72.139  1.00  0.00    -0.284 C  
HETATM    5  O   UNL     1     -13.588   9.977  70.738  1.00  0.00    -0.252 OA 
ENDROOT
BRANCH   3   6
HETATM    6  C   UNL     1     -11.185  10.262  70.850  1.00  0.00    -0.311 C  
BRANCH   6   7
HETATM    7  C   UNL     1     -11.215  11.145  69.645  1.00  0.00    -0.264 A  
HETATM    8  C   UNL     1     -11.598  12.470  69.459  1.00  0.00    -0.281 A  
HETATM    9  N   UNL     1     -11.578  12.793  68.118  1.00  0.00    -0.314 NA 
HETATM   10  N   UNL     1     -10.823  10.709  68.390  1.00  0.00    -0.219 NA 
HETATM   11  C   UNL     1     -11.110  11.735  67.499  1.00  0.00    -0.272 A  
HETATM   12  C   UNL     1     -10.260   9.491  67.993  1.00  0.00    -0.201 A  
HETATM   13  C   UNL     1      -9.367   7.999  66.207  1.00  0.00    -0.246 C  
HETATM   14  C   UNL     1     -10.856  11.493  66.121  1.00  0.00    -0.330 A  
HETATM   15  C   UNL     1      -9.993   9.269  66.691  1.00  0.00    -0.333 A  
HETATM   16  C   UNL     1     -10.327  10.316  65.727  1.00  0.00    -0.236 A  
BRANCH   8  17
HETATM   17  C   UNL     1     -12.048  13.411  70.479  1.00  0.00    -0.399 A  
HETATM   18  C   UNL     1     -13.350  13.849  72.492  1.00  0.00    -0.656 A  
HETATM   19  C   UNL     1     -12.859  15.158  72.553  1.00  0.00    -0.449 A  
HETATM   20  C   UNL     1     -12.015  15.608  71.536  1.00  0.00    -0.482 A  
HETATM   21  C   UNL     1     -11.630  14.747  70.504  1.00  0.00    -0.333 A  
HETATM   22  C   UNL     1     -12.945  12.985  71.467  1.00  0.00    -0.398 A  
HETATM   23  C   UNL     1     -13.252  16.063  73.683  1.00  0.00    -0.506 C  
ENDBRANCH   8  17
ENDBRANCH   6   7
ENDBRANCH   3   6
TORSDOF 3
ENDMDL
MODEL       17
REMARK 921   NORMALIZED FREE ENERGY PREDICTED BY IDOCK:   -6.14 KCAL/MOL
REMARK 922        TOTAL FREE ENERGY PREDICTED BY IDOCK:   -8.06 KCAL/MOL
REMARK 923 INTER-LIGAND FREE ENERGY PREDICTED BY IDOCK:   -7.04 KCAL/MOL
REMARK 924 INTRA-LIGAND FREE ENERGY PREDICTED BY IDOCK:   -1.02 KCAL/MOL
REMARK 927      BINDING AFFINITY PREDICTED BY RF-SCORE:    0.00 PKD
ROOT
HETATM    1  C   UNL     1     -10.979  11.467  64.166  1.00  0.00    -0.366 C  
HETATM    2  N   UNL     1     -10.309  11.837  65.400  1.00  0.00    -0.257 N  
HETATM    3  C   UNL     1     -11.124  12.314  66.430  1.00  0.00    -0.303 C  
HETATM    4  C   UNL     1      -8.983  11.292  65.639  1.00  0.00    -0.163 C  
HETATM    5  O   UNL     1     -12.334  12.472  66.264  1.00  0.00    -0.570 OA 
ENDROOT
BRANCH   3   6
HETATM    6  C   UNL     1     -10.429  12.647  67.751  1.00  0.00    -0.228 C  
BRANCH   6   7
HETATM    7  C   UNL     1     -10.990  11.849  68.883  1.00  0.00    -0.238 A  
HETATM    8  C   UNL     1     -10.911  10.500  69.212  1.00  0.00    -0.243 A  
HETATM    9  N   UNL     1     -11.726  10.218  70.290  1.00  0.00    -0.287 NA 
HETATM   10  N   UNL     1     -11.769  12.413  69.880  1.00  0.00    -0.298 NA 
HETATM   11  C   UNL     1     -12.223  11.370  70.676  1.00  0.00    -0.389 A  
HETATM   12  C   UNL     1     -12.106  13.751  70.114  1.00  0.00    -0.359 A  
HETATM   13  C   UNL     1     -13.299  15.480  71.455  1.00  0.00    -0.592 C  
HETATM   14  C   UNL     1     -13.109  11.697  71.739  1.00  0.00    -0.487 A  
HETATM   15  C   UNL     1     -12.924  14.068  71.137  1.00  0.00    -0.402 A  
HETATM   16  C   UNL     1     -13.451  12.983  71.963  1.00  0.00    -0.584 A  
BRANCH   8  17
HETATM   17  C   UNL     1     -10.161   9.462  68.513  1.00  0.00    -0.223 A  
HETATM   18  C   UNL     1     -10.073   7.760  66.772  1.00  0.00    -0.341 A  
HETATM   19  C   UNL     1      -8.721   7.521  67.040  1.00  0.00    -0.127 A  
HETATM   20  C   UNL     1      -8.112   8.210  68.091  1.00  0.00    -0.128 A  
HETATM   21  C   UNL     1      -8.832   9.156  68.827  1.00  0.00    -0.132 A  
HETATM   22  C   UNL     1     -10.784   8.722  67.500  1.00  0.00    -0.213 A  
HETATM   23  C   UNL     1      -7.948   6.529  66.222  1.00  0.00    -0.111 C  
ENDBRANCH   8  17
ENDBRANCH   6   7
ENDBRANCH   3   6
TORSDOF 3
ENDMDL
MODEL       18
REMARK 921   NORMALIZED FREE ENERGY PREDICTED BY IDOCK:   -6.13 KCAL/MOL
REMARK 922        TOTAL FREE ENERGY PREDICTED BY IDOCK:   -8.05 KCAL/MOL
REMARK 923 INTER-LIGAND FREE ENERGY PREDICTED BY IDOCK:   -7.69 KCAL/MOL
REMARK 924 INTRA-LIGAND FREE ENERGY PREDICTED BY IDOCK:   -0.36 KCAL/MOL
REMARK 927      BINDING AFFINITY PREDICTED BY RF-SCORE:    0.00 PKD
ROOT
HETATM    1  C   UNL     1     -10.263  10.524  65.143  1.00  0.00    -0.288 C  
HETATM    2  N   UNL     1      -9.689  10.494  66.478  1.00  0.00    -0.185 N  
HETATM    3  C   UNL     1     -10.582  10.663  67.540  1.00  0.00    -0.252 C  
HETATM    4  C   UNL     1      -8.387   9.869  66.640  1.00  0.00    -0.125 C  
HETATM    5  O   UNL     1     -11.774  10.893  67.340  1.00  0.00    -0.510 OA 
ENDROOT
BRANCH   3   6
HETATM    6  C   UNL     1      -9.991  10.571  68.948  1.00  0.00    -0.213 C  
BRANCH   6   7
HETATM    7  C   UNL     1     -10.885   9.807  69.870  1.00  0.00    -0.272 A  
HETATM    8  C   UNL     1     -11.880  10.204  70.758  1.00  0.00    -0.351 A  
HETATM    9  N   UNL     1     -12.326   9.127  71.495  1.00  0.00    -0.328 NA 
HETATM   10  N   UNL     1     -10.836   8.428  69.985  1.00  0.00    -0.240 NA 
HETATM   11  C   UNL     1     -11.697   8.079  71.017  1.00  0.00    -0.277 A  
HETATM   12  C   UNL     1     -10.086   7.488  69.269  1.00  0.00    -0.188 A  
HETATM   13  C   UNL     1      -9.415   5.126  68.841  1.00  0.00    -0.184 C  
HETATM   14  C   UNL     1     -11.765   6.704  71.374  1.00  0.00    -0.374 A  
HETATM   15  C   UNL     1     -10.169   6.181  69.586  1.00  0.00    -0.255 A  
HETATM   16  C   UNL     1     -11.036   5.792  70.698  1.00  0.00    -0.319 A  
BRANCH   8  17
HETATM   17  C   UNL     1     -12.370  11.559  70.987  1.00  0.00    -0.434 A  
HETATM   18  C   UNL     1     -13.670  13.111  72.344  1.00  0.00    -0.640 A  
HETATM   19  C   UNL     1     -13.254  14.188  71.553  1.00  0.00    -0.423 A  
HETATM   20  C   UNL     1     -12.449  13.934  70.441  1.00  0.00    -0.404 A  
HETATM   21  C   UNL     1     -12.029  12.631  70.155  1.00  0.00    -0.375 A  
HETATM   22  C   UNL     1     -13.229  11.811  72.064  1.00  0.00    -0.460 A  
HETATM   23  C   UNL     1     -13.683  15.586  71.888  1.00  0.00    -0.593 C  
ENDBRANCH   8  17
ENDBRANCH   6   7
ENDBRANCH   3   6
TORSDOF 3
ENDMDL
MODEL       19
REMARK 921   NORMALIZED FREE ENERGY PREDICTED BY IDOCK:   -6.12 KCAL/MOL
REMARK 922        TOTAL FREE ENERGY PREDICTED BY IDOCK:   -8.04 KCAL/MOL
REMARK 923 INTER-LIGAND FREE ENERGY PREDICTED BY IDOCK:   -7.08 KCAL/MOL
REMARK 924 INTRA-LIGAND FREE ENERGY PREDICTED BY IDOCK:   -0.96 KCAL/MOL
REMARK 927      BINDING AFFINITY PREDICTED BY RF-SCORE:    0.00 PKD
ROOT
HETATM    1  C   UNL     1      -7.361   7.400  67.779  1.00  0.00    -0.092 C  
HETATM    2  N   UNL     1      -8.781   7.664  67.927  1.00  0.00    -0.125 N  
HETATM    3  C   UNL     1      -9.276   8.788  67.259  1.00  0.00    -0.139 C  
HETATM    4  C   UNL     1      -9.634   6.565  68.348  1.00  0.00    -0.122 C  
HETATM    5  O   UNL     1      -8.526   9.542  66.640  1.00  0.00    -0.130 OA 
ENDROOT
BRANCH   3   6
HETATM    6  C   UNL     1     -10.782   9.035  67.364  1.00  0.00    -0.231 C  
BRANCH   6   7
HETATM    7  C   UNL     1     -11.080  10.309  68.087  1.00  0.00    -0.264 A  
HETATM    8  C   UNL     1     -11.166  10.624  69.439  1.00  0.00    -0.270 A  
HETATM    9  N   UNL     1     -11.612  11.920  69.604  1.00  0.00    -0.316 NA 
HETATM   10  N   UNL     1     -11.350  11.496  67.427  1.00  0.00    -0.388 NA 
HETATM   11  C   UNL     1     -11.711  12.423  68.396  1.00  0.00    -0.336 A  
HETATM   12  C   UNL     1     -11.315  11.798  66.061  1.00  0.00    -0.273 A  
HETATM   13  C   UNL     1     -11.619  13.420  64.194  1.00  0.00    -0.440 C  
HETATM   14  C   UNL     1     -12.105  13.714  67.949  1.00  0.00    -0.318 A  
HETATM   15  C   UNL     1     -11.662  13.029  65.636  1.00  0.00    -0.418 A  
HETATM   16  C   UNL     1     -12.088  14.010  66.633  1.00  0.00    -0.487 A  
BRANCH   8  17
HETATM   17  C   UNL     1     -10.918   9.738  70.571  1.00  0.00    -0.384 A  
HETATM   18  C   UNL     1     -11.793   8.383  72.397  1.00  0.00    -0.452 A  
HETATM   19  C   UNL     1     -10.508   7.921  72.703  1.00  0.00    -0.384 A  
HETATM   20  C   UNL     1      -9.424   8.424  71.980  1.00  0.00    -0.339 A  
HETATM   21  C   UNL     1      -9.629   9.335  70.939  1.00  0.00    -0.339 A  
HETATM   22  C   UNL     1     -11.995   9.280  71.340  1.00  0.00    -0.424 A  
HETATM   23  C   UNL     1     -10.302   6.919  73.799  1.00  0.00    -0.409 C  
ENDBRANCH   8  17
ENDBRANCH   6   7
ENDBRANCH   3   6
TORSDOF 3
ENDMDL
MODEL       20
REMARK 921   NORMALIZED FREE ENERGY PREDICTED BY IDOCK:   -6.07 KCAL/MOL
REMARK 922        TOTAL FREE ENERGY PREDICTED BY IDOCK:   -7.97 KCAL/MOL
REMARK 923 INTER-LIGAND FREE ENERGY PREDICTED BY IDOCK:   -6.95 KCAL/MOL
REMARK 924 INTRA-LIGAND FREE ENERGY PREDICTED BY IDOCK:   -1.03 KCAL/MOL
REMARK 927      BINDING AFFINITY PREDICTED BY RF-SCORE:    0.00 PKD
ROOT
HETATM    1  C   UNL     1      -9.791  10.303  64.733  1.00  0.00    -0.334 C  
HETATM    2  N   UNL     1      -9.530  10.694  66.107  1.00  0.00    -0.173 N  
HETATM    3  C   UNL     1      -9.931   9.792  67.096  1.00  0.00    -0.198 C  
HETATM    4  C   UNL     1      -8.520  11.713  66.340  1.00  0.00    -0.114 C  
HETATM    5  O   UNL     1     -10.534   8.758  66.808  1.00  0.00    -0.275 OA 
ENDROOT
BRANCH   3   6
HETATM    6  C   UNL     1      -9.603  10.173  68.541  1.00  0.00    -0.158 C  
BRANCH   6   7
HETATM    7  C   UNL     1     -10.820  10.630  69.277  1.00  0.00    -0.239 A  
HETATM    8  C   UNL     1     -11.565  11.804  69.224  1.00  0.00    -0.315 A  
HETATM    9  N   UNL     1     -12.528  11.809  70.213  1.00  0.00    -0.205 NA 
HETATM   10  N   UNL     1     -11.448   9.854  70.237  1.00  0.00    -0.273 NA 
HETATM   11  C   UNL     1     -12.445  10.638  70.801  1.00  0.00    -0.385 A  
HETATM   12  C   UNL     1     -11.190   8.540  70.646  1.00  0.00    -0.252 A  
HETATM   13  C   UNL     1     -11.705   6.587  72.105  1.00  0.00    -0.353 C  
HETATM   14  C   UNL     1     -13.191  10.075  71.873  1.00  0.00    -0.557 A  
HETATM   15  C   UNL     1     -11.913   7.994  71.642  1.00  0.00    -0.336 A  
HETATM   16  C   UNL     1     -12.941   8.814  72.283  1.00  0.00    -0.462 A  
BRANCH   8  17
HETATM   17  C   UNL     1     -11.360  12.941  68.334  1.00  0.00    -0.329 A  
HETATM   18  C   UNL     1     -10.335  15.113  67.918  1.00  0.00    -0.241 A  
HETATM   19  C   UNL     1     -10.828  15.121  66.608  1.00  0.00    -0.318 A  
HETATM   20  C   UNL     1     -11.642  14.067  66.190  1.00  0.00    -0.374 A  
HETATM   21  C   UNL     1     -11.917  13.000  67.052  1.00  0.00    -0.409 A  
HETATM   22  C   UNL     1     -10.597  14.032  68.770  1.00  0.00    -0.260 A  
HETATM   23  C   UNL     1     -10.499  16.253  65.681  1.00  0.00    -0.386 C  
ENDBRANCH   8  17
ENDBRANCH   6   7
ENDBRANCH   3   6
TORSDOF 3
ENDMDL
MODEL       21
REMARK 921   NORMALIZED FREE ENERGY PREDICTED BY IDOCK:   -6.03 KCAL/MOL
REMARK 922        TOTAL FREE ENERGY PREDICTED BY IDOCK:   -7.93 KCAL/MOL
REMARK 923 INTER-LIGAND FREE ENERGY PREDICTED BY IDOCK:   -8.07 KCAL/MOL
REMARK 924 INTRA-LIGAND FREE ENERGY PREDICTED BY IDOCK:    0.14 KCAL/MOL
REMARK 927      BINDING AFFINITY PREDICTED BY RF-SCORE:    0.00 PKD
ROOT
HETATM    1  C   UNL     1     -12.291  15.280  74.155  1.00  0.00    -0.625 C  
HETATM    2  N   UNL     1     -12.265  15.207  72.705  1.00  0.00    -0.371 N  
HETATM    3  C   UNL     1     -13.142  14.294  72.114  1.00  0.00    -0.382 C  
HETATM    4  C   UNL     1     -11.707  16.337  71.981  1.00  0.00    -0.443 C  
HETATM    5  O   UNL     1     -13.842  13.548  72.799  1.00  0.00    -0.730 OA 
ENDROOT
BRANCH   3   6
HETATM    6  C   UNL     1     -13.161  14.258  70.585  1.00  0.00    -0.247 C  
BRANCH   6   7
HETATM    7  C   UNL     1     -12.110  13.344  70.044  1.00  0.00    -0.334 A  
HETATM    8  C   UNL     1     -11.053  13.544  69.161  1.00  0.00    -0.225 A  
HETATM    9  N   UNL     1     -10.442  12.343  68.861  1.00  0.00    -0.147 NA 
HETATM   10  N   UNL     1     -12.038  12.004  70.387  1.00  0.00    -0.355 NA 
HETATM   11  C   UNL     1     -11.039  11.441  69.604  1.00  0.00    -0.174 A  
HETATM   12  C   UNL     1     -12.789  11.266  71.308  1.00  0.00    -0.389 A  
HETATM   13  C   UNL     1     -13.319   9.107  72.435  1.00  0.00    -0.527 C  
HETATM   14  C   UNL     1     -10.823  10.040  69.728  1.00  0.00    -0.308 A  
HETATM   15  C   UNL     1     -12.569   9.944  71.448  1.00  0.00    -0.497 A  
HETATM   16  C   UNL     1     -11.552   9.318  70.603  1.00  0.00    -0.305 A  
BRANCH   8  17
HETATM   17  C   UNL     1     -10.647  14.799  68.539  1.00  0.00    -0.248 A  
HETATM   18  C   UNL     1     -10.591  16.236  66.571  1.00  0.00    -0.256 A  
HETATM   19  C   UNL     1      -9.993  17.263  67.309  1.00  0.00    -0.283 A  
HETATM   20  C   UNL     1      -9.663  17.028  68.645  1.00  0.00    -0.282 A  
HETATM   21  C   UNL     1      -9.973  15.802  69.244  1.00  0.00    -0.262 A  
HETATM   22  C   UNL     1     -10.917  15.018  67.182  1.00  0.00    -0.329 A  
HETATM   23  C   UNL     1      -9.695  18.585  66.666  1.00  0.00    -0.353 C  
ENDBRANCH   8  17
ENDBRANCH   6   7
ENDBRANCH   3   6
TORSDOF 3
ENDMDL
MODEL       22
REMARK 921   NORMALIZED FREE ENERGY PREDICTED BY IDOCK:   -6.03 KCAL/MOL
REMARK 922        TOTAL FREE ENERGY PREDICTED BY IDOCK:   -7.93 KCAL/MOL
REMARK 923 INTER-LIGAND FREE ENERGY PREDICTED BY IDOCK:   -7.17 KCAL/MOL
REMARK 924 INTRA-LIGAND FREE ENERGY PREDICTED BY IDOCK:   -0.76 KCAL/MOL
REMARK 927      BINDING AFFINITY PREDICTED BY RF-SCORE:    0.00 PKD
ROOT
HETATM    1  C   UNL     1      -9.449  10.920  64.496  1.00  0.00    -0.244 C  
HETATM    2  N   UNL     1     -10.672  11.437  65.084  1.00  0.00    -0.286 N  
HETATM    3  C   UNL     1     -10.564  11.972  66.371  1.00  0.00    -0.243 C  
HETATM    4  C   UNL     1     -11.766  11.771  64.187  1.00  0.00    -0.285 C  
HETATM    5  O   UNL     1      -9.499  11.936  66.988  1.00  0.00    -0.182 OA 
ENDROOT
BRANCH   3   6
HETATM    6  C   UNL     1     -11.837  12.571  66.969  1.00  0.00    -0.394 C  
BRANCH   6   7
HETATM    7  C   UNL     1     -11.542  13.373  68.196  1.00  0.00    -0.341 A  
HETATM    8  C   UNL     1     -11.555  13.057  69.551  1.00  0.00    -0.276 A  
HETATM    9  N   UNL     1     -11.345  14.189  70.311  1.00  0.00    -0.110 NA 
HETATM   10  N   UNL     1     -11.176  14.708  68.145  1.00  0.00    -0.276 NA 
HETATM   11  C   UNL     1     -11.116  15.159  69.457  1.00  0.00    -0.277 A  
HETATM   12  C   UNL     1     -10.916  15.531  67.044  1.00  0.00    -0.283 A  
HETATM   13  C   UNL     1     -10.297  17.754  66.102  1.00  0.00    -0.340 C  
HETATM   14  C   UNL     1     -10.824  16.536  69.661  1.00  0.00    -0.322 A  
HETATM   15  C   UNL     1     -10.612  16.830  67.235  1.00  0.00    -0.275 A  
HETATM   16  C   UNL     1     -10.586  17.341  68.605  1.00  0.00    -0.329 A  
BRANCH   8  17
HETATM   17  C   UNL     1     -11.828  11.757  70.152  1.00  0.00    -0.408 A  
HETATM   18  C   UNL     1     -13.188  10.382  71.635  1.00  0.00    -0.502 A  
HETATM   19  C   UNL     1     -12.481   9.235  71.261  1.00  0.00    -0.389 A  
HETATM   20  C   UNL     1     -11.404   9.366  70.382  1.00  0.00    -0.295 A  
HETATM   21  C   UNL     1     -11.074  10.617  69.850  1.00  0.00    -0.364 A  
HETATM   22  C   UNL     1     -12.866  11.629  71.084  1.00  0.00    -0.392 A  
HETATM   23  C   UNL     1     -12.864   7.893  71.811  1.00  0.00    -0.351 C  
ENDBRANCH   8  17
ENDBRANCH   6   7
ENDBRANCH   3   6
TORSDOF 3
ENDMDL
MODEL       23
REMARK 921   NORMALIZED FREE ENERGY PREDICTED BY IDOCK:   -6.01 KCAL/MOL
REMARK 922        TOTAL FREE ENERGY PREDICTED BY IDOCK:   -7.91 KCAL/MOL
REMARK 923 INTER-LIGAND FREE ENERGY PREDICTED BY IDOCK:   -7.36 KCAL/MOL
REMARK 924 INTRA-LIGAND FREE ENERGY PREDICTED BY IDOCK:   -0.55 KCAL/MOL
REMARK 927      BINDING AFFINITY PREDICTED BY RF-SCORE:    0.00 PKD
ROOT
HETATM    1  C   UNL     1     -11.555   5.768  72.539  1.00  0.00    -0.267 C  
HETATM    2  N   UNL     1     -10.767   6.945  72.214  1.00  0.00    -0.217 N  
HETATM    3  C   UNL     1     -11.480   8.072  71.795  1.00  0.00    -0.277 C  
HETATM    4  C   UNL     1      -9.419   7.026  72.751  1.00  0.00    -0.146 C  
HETATM    5  O   UNL     1     -12.701   8.034  71.647  1.00  0.00    -0.313 OA 
ENDROOT
BRANCH   3   6
HETATM    6  C   UNL     1     -10.659   9.331  71.510  1.00  0.00    -0.405 C  
BRANCH   6   7
HETATM    7  C   UNL     1     -10.868   9.818  70.113  1.00  0.00    -0.291 A  
HETATM    8  C   UNL     1     -11.510  10.938  69.594  1.00  0.00    -0.305 A  
HETATM    9  N   UNL     1     -11.558  10.870  68.217  1.00  0.00    -0.470 NA 
HETATM   10  N   UNL     1     -10.397   9.132  69.006  1.00  0.00    -0.211 NA 
HETATM   11  C   UNL     1     -10.886   9.793  67.886  1.00  0.00    -0.242 A  
HETATM   12  C   UNL     1      -9.601   7.984  68.925  1.00  0.00    -0.152 A  
HETATM   13  C   UNL     1      -8.428   6.254  67.568  1.00  0.00    -0.108 C  
HETATM   14  C   UNL     1     -10.591   9.228  66.614  1.00  0.00    -0.161 A  
HETATM   15  C   UNL     1      -9.297   7.462  67.721  1.00  0.00    -0.144 A  
HETATM   16  C   UNL     1      -9.836   8.114  66.528  1.00  0.00    -0.309 A  
BRANCH   8  17
HETATM   17  C   UNL     1     -12.139  12.021  70.341  1.00  0.00    -0.407 A  
HETATM   18  C   UNL     1     -12.608  14.401  70.579  1.00  0.00    -0.417 A  
HETATM   19  C   UNL     1     -13.434  14.153  71.680  1.00  0.00    -0.448 A  
HETATM   20  C   UNL     1     -13.556  12.843  72.148  1.00  0.00    -0.589 A  
HETATM   21  C   UNL     1     -12.900  11.795  71.494  1.00  0.00    -0.450 A  
HETATM   22  C   UNL     1     -11.970  13.345  69.916  1.00  0.00    -0.408 A  
HETATM   23  C   UNL     1     -14.160  15.280  72.354  1.00  0.00    -0.622 C  
ENDBRANCH   8  17
ENDBRANCH   6   7
ENDBRANCH   3   6
TORSDOF 3
ENDMDL
MODEL       24
REMARK 921   NORMALIZED FREE ENERGY PREDICTED BY IDOCK:   -6.00 KCAL/MOL
REMARK 922        TOTAL FREE ENERGY PREDICTED BY IDOCK:   -7.90 KCAL/MOL
REMARK 923 INTER-LIGAND FREE ENERGY PREDICTED BY IDOCK:   -7.12 KCAL/MOL
REMARK 924 INTRA-LIGAND FREE ENERGY PREDICTED BY IDOCK:   -0.78 KCAL/MOL
REMARK 927      BINDING AFFINITY PREDICTED BY RF-SCORE:    0.00 PKD
ROOT
HETATM    1  C   UNL     1     -12.658  14.511  70.265  1.00  0.00    -0.323 C  
HETATM    2  N   UNL     1     -11.446  14.260  69.505  1.00  0.00    -0.274 N  
HETATM    3  C   UNL     1     -10.466  15.257  69.551  1.00  0.00    -0.260 C  
HETATM    4  C   UNL     1     -11.146  12.884  69.145  1.00  0.00    -0.190 C  
HETATM    5  O   UNL     1     -10.663  16.315  70.150  1.00  0.00    -0.308 OA 
ENDROOT
BRANCH   3   6
HETATM    6  C   UNL     1      -9.165  14.969  68.802  1.00  0.00    -0.200 C  
BRANCH   6   7
HETATM    7  C   UNL     1      -8.977  15.902  67.650  1.00  0.00    -0.190 A  
HETATM    8  C   UNL     1      -9.396  15.855  66.324  1.00  0.00    -0.322 A  
HETATM    9  N   UNL     1      -8.844  16.897  65.607  1.00  0.00    -0.390 NA 
HETATM   10  N   UNL     1      -8.266  17.086  67.757  1.00  0.00    -0.189 NA 
HETATM   11  C   UNL     1      -8.180  17.621  66.478  1.00  0.00    -0.273 A  
HETATM   12  C   UNL     1      -7.691  17.696  68.877  1.00  0.00    -0.205 A  
HETATM   13  C   UNL     1      -6.386  19.558  69.896  1.00  0.00    -0.327 C  
HETATM   14  C   UNL     1      -7.427  18.817  66.320  1.00  0.00    -0.288 A  
HETATM   15  C   UNL     1      -7.000  18.844  68.735  1.00  0.00    -0.332 A  
HETATM   16  C   UNL     1      -6.857  19.405  67.392  1.00  0.00    -0.226 A  
BRANCH   8  17
HETATM   17  C   UNL     1     -10.228  14.835  65.696  1.00  0.00    -0.382 A  
HETATM   18  C   UNL     1     -12.188  14.263  64.365  1.00  0.00    -0.471 A  
HETATM   19  C   UNL     1     -11.818  12.914  64.356  1.00  0.00    -0.441 A  
HETATM   20  C   UNL     1     -10.688  12.522  65.076  1.00  0.00    -0.326 A  
HETATM   21  C   UNL     1      -9.915  13.472  65.751  1.00  0.00    -0.266 A  
HETATM   22  C   UNL     1     -11.399  15.213  65.026  1.00  0.00    -0.381 A  
HETATM   23  C   UNL     1     -12.635  11.908  63.601  1.00  0.00    -0.555 C  
ENDBRANCH   8  17
ENDBRANCH   6   7
ENDBRANCH   3   6
TORSDOF 3
ENDMDL
MODEL       25
REMARK 921   NORMALIZED FREE ENERGY PREDICTED BY IDOCK:   -6.00 KCAL/MOL
REMARK 922        TOTAL FREE ENERGY PREDICTED BY IDOCK:   -7.89 KCAL/MOL
REMARK 923 INTER-LIGAND FREE ENERGY PREDICTED BY IDOCK:   -7.27 KCAL/MOL
REMARK 924 INTRA-LIGAND FREE ENERGY PREDICTED BY IDOCK:   -0.63 KCAL/MOL
REMARK 927      BINDING AFFINITY PREDICTED BY RF-SCORE:    0.00 PKD
ROOT
HETATM    1  C   UNL     1      -6.325  10.812  68.086  1.00  0.00    -0.057 C  
HETATM    2  N   UNL     1      -7.728  10.443  68.016  1.00  0.00    -0.092 N  
HETATM    3  C   UNL     1      -8.651  11.458  68.286  1.00  0.00    -0.156 C  
HETATM    4  C   UNL     1      -8.077   9.247  67.267  1.00  0.00    -0.113 C  
HETATM    5  O   UNL     1      -8.281  12.580  68.632  1.00  0.00    -0.107 OA 
ENDROOT
BRANCH   3   6
HETATM    6  C   UNL     1     -10.129  11.088  68.154  1.00  0.00    -0.195 C  
BRANCH   6   7
HETATM    7  C   UNL     1     -10.887  12.123  67.387  1.00  0.00    -0.245 A  
HETATM    8  C   UNL     1     -11.699  13.181  67.785  1.00  0.00    -0.358 A  
HETATM    9  N   UNL     1     -12.293  13.771  66.688  1.00  0.00    -0.400 NA 
HETATM   10  N   UNL     1     -10.891  12.173  66.003  1.00  0.00    -0.271 NA 
HETATM   11  C   UNL     1     -11.796  13.161  65.638  1.00  0.00    -0.387 A  
HETATM   12  C   UNL     1     -10.178  11.412  65.070  1.00  0.00    -0.281 A  
HETATM   13  C   UNL     1      -9.623  10.848  62.707  1.00  0.00    -0.339 C  
HETATM   14  C   UNL     1     -12.027  13.354  64.248  1.00  0.00    -0.481 A  
HETATM   15  C   UNL     1     -10.374  11.610  63.752  1.00  0.00    -0.445 A  
HETATM   16  C   UNL     1     -11.355  12.614  63.341  1.00  0.00    -0.456 A  
BRANCH   8  17
HETATM   17  C   UNL     1     -11.990  13.606  69.149  1.00  0.00    -0.394 A  
HETATM   18  C   UNL     1     -12.291  15.413  70.758  1.00  0.00    -0.447 A  
HETATM   19  C   UNL     1     -12.666  14.499  71.749  1.00  0.00    -0.415 A  
HETATM   20  C   UNL     1     -12.636  13.135  71.453  1.00  0.00    -0.352 A  
HETATM   21  C   UNL     1     -12.285  12.698  70.172  1.00  0.00    -0.310 A  
HETATM   22  C   UNL     1     -11.960  14.970  69.471  1.00  0.00    -0.346 A  
HETATM   23  C   UNL     1     -13.073  14.981  73.110  1.00  0.00    -0.619 C  
ENDBRANCH   8  17
ENDBRANCH   6   7
ENDBRANCH   3   6
TORSDOF 3
ENDMDL
MODEL       26
REMARK 921   NORMALIZED FREE ENERGY PREDICTED BY IDOCK:   -5.97 KCAL/MOL
REMARK 922        TOTAL FREE ENERGY PREDICTED BY IDOCK:   -7.86 KCAL/MOL
REMARK 923 INTER-LIGAND FREE ENERGY PREDICTED BY IDOCK:   -7.28 KCAL/MOL
REMARK 924 INTRA-LIGAND FREE ENERGY PREDICTED BY IDOCK:   -0.59 KCAL/MOL
REMARK 927      BINDING AFFINITY PREDICTED BY RF-SCORE:    0.00 PKD
ROOT
HETATM    1  C   UNL     1     -10.970  15.580  70.567  1.00  0.00    -0.344 C  
HETATM    2  N   UNL     1     -11.781  14.444  70.163  1.00  0.00    -0.288 N  
HETATM    3  C   UNL     1     -11.269  13.652  69.131  1.00  0.00    -0.261 C  
HETATM    4  C   UNL     1     -12.779  13.958  71.101  1.00  0.00    -0.367 C  
HETATM    5  O   UNL     1     -10.222  13.953  68.557  1.00  0.00    -0.234 OA 
ENDROOT
BRANCH   3   6
HETATM    6  C   UNL     1     -12.091  12.421  68.744  1.00  0.00    -0.158 C  
BRANCH   6   7
HETATM    7  C   UNL     1     -11.291  11.465  67.920  1.00  0.00    -0.303 A  
HETATM    8  C   UNL     1     -10.528  10.349  68.250  1.00  0.00    -0.191 A  
HETATM    9  N   UNL     1      -9.860   9.877  67.139  1.00  0.00    -0.178 NA 
HETATM   10  N   UNL     1     -11.181  11.576  66.544  1.00  0.00    -0.309 NA 
HETATM   11  C   UNL     1     -10.265  10.617  66.134  1.00  0.00    -0.248 A  
HETATM   12  C   UNL     1     -11.808  12.458  65.657  1.00  0.00    -0.409 A  
HETATM   13  C   UNL     1     -12.169  13.307  63.341  1.00  0.00    -0.476 C  
HETATM   14  C   UNL     1      -9.930  10.582  64.752  1.00  0.00    -0.412 A  
HETATM   15  C   UNL     1     -11.513  12.411  64.343  1.00  0.00    -0.408 A  
HETATM   16  C   UNL     1     -10.518  11.438  63.892  1.00  0.00    -0.444 A  
BRANCH   8  17
HETATM   17  C   UNL     1     -10.350   9.760  69.573  1.00  0.00    -0.247 A  
HETATM   18  C   UNL     1     -11.335   8.919  71.637  1.00  0.00    -0.407 A  
HETATM   19  C   UNL     1     -10.078   8.510  72.098  1.00  0.00    -0.393 A  
HETATM   20  C   UNL     1      -8.953   8.789  71.320  1.00  0.00    -0.295 A  
HETATM   21  C   UNL     1      -9.091   9.423  70.080  1.00  0.00    -0.262 A  
HETATM   22  C   UNL     1     -11.468   9.535  70.386  1.00  0.00    -0.297 A  
HETATM   23  C   UNL     1      -9.946   7.801  73.413  1.00  0.00    -0.348 C  
ENDBRANCH   8  17
ENDBRANCH   6   7
ENDBRANCH   3   6
TORSDOF 3
ENDMDL
MODEL       27
REMARK 921   NORMALIZED FREE ENERGY PREDICTED BY IDOCK:   -5.97 KCAL/MOL
REMARK 922        TOTAL FREE ENERGY PREDICTED BY IDOCK:   -7.86 KCAL/MOL
REMARK 923 INTER-LIGAND FREE ENERGY PREDICTED BY IDOCK:   -7.56 KCAL/MOL
REMARK 924 INTRA-LIGAND FREE ENERGY PREDICTED BY IDOCK:   -0.31 KCAL/MOL
REMARK 927      BINDING AFFINITY PREDICTED BY RF-SCORE:    0.00 PKD
ROOT
HETATM    1  C   UNL     1      -8.296  16.993  66.364  1.00  0.00    -0.284 C  
HETATM    2  N   UNL     1      -9.578  16.336  66.175  1.00  0.00    -0.310 N  
HETATM    3  C   UNL     1      -9.848  15.249  67.011  1.00  0.00    -0.229 C  
HETATM    4  C   UNL     1     -10.626  17.081  65.496  1.00  0.00    -0.173 C  
HETATM    5  O   UNL     1      -9.007  14.837  67.811  1.00  0.00    -0.174 OA 
ENDROOT
BRANCH   3   6
HETATM    6  C   UNL     1     -11.221  14.593  66.855  1.00  0.00    -0.345 C  
BRANCH   6   7
HETATM    7  C   UNL     1     -11.243  13.220  67.445  1.00  0.00    -0.289 A  
HETATM    8  C   UNL     1     -11.598  12.743  68.703  1.00  0.00    -0.314 A  
HETATM    9  N   UNL     1     -11.309  11.398  68.807  1.00  0.00    -0.243 NA 
HETATM   10  N   UNL     1     -10.860  12.096  66.733  1.00  0.00    -0.238 NA 
HETATM   11  C   UNL     1     -10.876  11.030  67.624  1.00  0.00    -0.256 A  
HETATM   12  C   UNL     1     -10.491  11.959  65.390  1.00  0.00    -0.270 A  
HETATM   13  C   UNL     1      -9.732  10.540  63.487  1.00  0.00    -0.374 C  
HETATM   14  C   UNL     1     -10.447   9.765  67.137  1.00  0.00    -0.316 A  
HETATM   15  C   UNL     1     -10.111  10.756  64.918  1.00  0.00    -0.387 A  
HETATM   16  C   UNL     1     -10.077   9.627  65.847  1.00  0.00    -0.304 A  
BRANCH   8  17
HETATM   17  C   UNL     1     -12.126  13.514  69.823  1.00  0.00    -0.381 A  
HETATM   18  C   UNL     1     -12.702  15.677  70.787  1.00  0.00    -0.483 A  
HETATM   19  C   UNL     1     -13.249  15.056  71.915  1.00  0.00    -0.455 A  
HETATM   20  C   UNL     1     -13.171  13.666  72.021  1.00  0.00    -0.522 A  
HETATM   21  C   UNL     1     -12.600  12.909  70.993  1.00  0.00    -0.376 A  
HETATM   22  C   UNL     1     -12.149  14.913  69.751  1.00  0.00    -0.357 A  
HETATM   23  C   UNL     1     -13.890  15.874  72.996  1.00  0.00    -0.477 C  
ENDBRANCH   8  17
ENDBRANCH   6   7
ENDBRANCH   3   6
TORSDOF 3
ENDMDL
MODEL       28
REMARK 921   NORMALIZED FREE ENERGY PREDICTED BY IDOCK:   -5.95 KCAL/MOL
REMARK 922        TOTAL FREE ENERGY PREDICTED BY IDOCK:   -7.84 KCAL/MOL
REMARK 923 INTER-LIGAND FREE ENERGY PREDICTED BY IDOCK:   -7.43 KCAL/MOL
REMARK 924 INTRA-LIGAND FREE ENERGY PREDICTED BY IDOCK:   -0.41 KCAL/MOL
REMARK 927      BINDING AFFINITY PREDICTED BY RF-SCORE:    0.00 PKD
ROOT
HETATM    1  C   UNL     1     -12.600  15.962  71.628  1.00  0.00    -0.419 C  
HETATM    2  N   UNL     1     -11.534  15.544  70.735  1.00  0.00    -0.332 N  
HETATM    3  C   UNL     1     -11.564  14.212  70.312  1.00  0.00    -0.201 C  
HETATM    4  C   UNL     1     -10.813  16.579  70.012  1.00  0.00    -0.254 C  
HETATM    5  O   UNL     1     -12.414  13.429  70.737  1.00  0.00    -0.354 OA 
ENDROOT
BRANCH   3   6
HETATM    6  C   UNL     1     -10.478  13.785  69.324  1.00  0.00     0.040 C  
BRANCH   6   7
HETATM    7  C   UNL     1     -11.015  12.853  68.287  1.00  0.00    -0.256 A  
HETATM    8  C   UNL     1     -11.339  11.500  68.316  1.00  0.00    -0.286 A  
HETATM    9  N   UNL     1     -11.667  11.056  67.052  1.00  0.00    -0.299 NA 
HETATM   10  N   UNL     1     -11.294  13.258  66.992  1.00  0.00    -0.299 NA 
HETATM   11  C   UNL     1     -11.640  12.117  66.279  1.00  0.00    -0.360 A  
HETATM   12  C   UNL     1     -11.246  14.531  66.414  1.00  0.00    -0.341 A  
HETATM   13  C   UNL     1     -11.516  16.021  64.435  1.00  0.00    -0.246 C  
HETATM   14  C   UNL     1     -11.906  12.270  64.891  1.00  0.00    -0.417 A  
HETATM   15  C   UNL     1     -11.524  14.684  65.104  1.00  0.00    -0.375 A  
HETATM   16  C   UNL     1     -11.848  13.492  64.321  1.00  0.00    -0.471 A  
BRANCH   8  17
HETATM   17  C   UNL     1     -11.279  10.602  69.464  1.00  0.00    -0.331 A  
HETATM   18  C   UNL     1     -12.401   9.543  71.351  1.00  0.00    -0.451 A  
HETATM   19  C   UNL     1     -11.261   8.782  71.632  1.00  0.00    -0.394 A  
HETATM   20  C   UNL     1     -10.112   8.984  70.866  1.00  0.00    -0.329 A  
HETATM   21  C   UNL     1     -10.120   9.897  69.806  1.00  0.00    -0.274 A  
HETATM   22  C   UNL     1     -12.410  10.441  70.276  1.00  0.00    -0.327 A  
HETATM   23  C   UNL     1     -11.274   7.781  72.749  1.00  0.00    -0.456 C  
ENDBRANCH   8  17
ENDBRANCH   6   7
ENDBRANCH   3   6
TORSDOF 3
ENDMDL
MODEL       29
REMARK 921   NORMALIZED FREE ENERGY PREDICTED BY IDOCK:   -5.90 KCAL/MOL
REMARK 922        TOTAL FREE ENERGY PREDICTED BY IDOCK:   -7.78 KCAL/MOL
REMARK 923 INTER-LIGAND FREE ENERGY PREDICTED BY IDOCK:   -7.01 KCAL/MOL
REMARK 924 INTRA-LIGAND FREE ENERGY PREDICTED BY IDOCK:   -0.77 KCAL/MOL
REMARK 927      BINDING AFFINITY PREDICTED BY RF-SCORE:    0.00 PKD
ROOT
HETATM    1  C   UNL     1      -8.428  15.893  66.426  1.00  0.00    -0.313 C  
HETATM    2  N   UNL     1      -9.646  15.102  66.400  1.00  0.00    -0.264 N  
HETATM    3  C   UNL     1     -10.288  14.910  67.627  1.00  0.00    -0.242 C  
HETATM    4  C   UNL     1     -10.332  14.957  65.127  1.00  0.00    -0.401 C  
HETATM    5  O   UNL     1      -9.799  15.335  68.674  1.00  0.00    -0.199 OA 
ENDROOT
BRANCH   3   6
HETATM    6  C   UNL     1     -11.602  14.128  67.594  1.00  0.00    -0.394 C  
BRANCH   6   7
HETATM    7  C   UNL     1     -11.657  13.101  68.678  1.00  0.00    -0.321 A  
HETATM    8  C   UNL     1     -11.158  11.806  68.772  1.00  0.00    -0.241 A  
HETATM    9  N   UNL     1     -11.596  11.204  69.934  1.00  0.00    -0.310 NA 
HETATM   10  N   UNL     1     -12.297  13.324  69.886  1.00  0.00    -0.219 NA 
HETATM   11  C   UNL     1     -12.267  12.125  70.585  1.00  0.00    -0.300 A  
HETATM   12  C   UNL     1     -12.903  14.482  70.387  1.00  0.00    -0.262 A  
HETATM   13  C   UNL     1     -14.151  15.665  72.190  1.00  0.00    -0.546 C  
HETATM   14  C   UNL     1     -12.932  12.085  71.842  1.00  0.00    -0.428 A  
HETATM   15  C   UNL     1     -13.510  14.455  71.589  1.00  0.00    -0.451 A  
HETATM   16  C   UNL     1     -13.531  13.192  72.326  1.00  0.00    -0.665 A  
BRANCH   8  17
HETATM   17  C   UNL     1     -10.353  11.096  67.785  1.00  0.00    -0.215 A  
HETATM   18  C   UNL     1     -10.078   9.190  66.290  1.00  0.00    -0.319 A  
HETATM   19  C   UNL     1      -8.893   9.732  65.778  1.00  0.00    -0.180 A  
HETATM   20  C   UNL     1      -8.409  10.923  66.322  1.00  0.00    -0.164 A  
HETATM   21  C   UNL     1      -9.125  11.585  67.325  1.00  0.00    -0.164 A  
HETATM   22  C   UNL     1     -10.800   9.868  67.281  1.00  0.00    -0.268 A  
HETATM   23  C   UNL     1      -8.151   9.032  64.679  1.00  0.00    -0.144 C  
ENDBRANCH   8  17
ENDBRANCH   6   7
ENDBRANCH   3   6
TORSDOF 3
ENDMDL
MODEL       30
REMARK 921   NORMALIZED FREE ENERGY PREDICTED BY IDOCK:   -5.86 KCAL/MOL
REMARK 922        TOTAL FREE ENERGY PREDICTED BY IDOCK:   -7.73 KCAL/MOL
REMARK 923 INTER-LIGAND FREE ENERGY PREDICTED BY IDOCK:   -7.14 KCAL/MOL
REMARK 924 INTRA-LIGAND FREE ENERGY PREDICTED BY IDOCK:   -0.59 KCAL/MOL
REMARK 927      BINDING AFFINITY PREDICTED BY RF-SCORE:    0.00 PKD
ROOT
HETATM    1  C   UNL     1     -13.313  14.500  70.901  1.00  0.00    -0.265 C  
HETATM    2  N   UNL     1     -11.959  14.918  70.584  1.00  0.00    -0.284 N  
HETATM    3  C   UNL     1     -11.524  14.672  69.278  1.00  0.00    -0.291 C  
HETATM    4  C   UNL     1     -11.340  15.915  71.440  1.00  0.00    -0.339 C  
HETATM    5  O   UNL     1     -12.236  14.071  68.472  1.00  0.00    -0.333 OA 
ENDROOT
BRANCH   3   6
HETATM    6  C   UNL     1     -10.121  15.165  68.922  1.00  0.00    -0.238 C  
BRANCH   6   7
HETATM    7  C   UNL     1     -10.124  15.968  67.662  1.00  0.00    -0.245 A  
HETATM    8  C   UNL     1     -10.093  15.610  66.318  1.00  0.00    -0.299 A  
HETATM    9  N   UNL     1      -9.967  16.731  65.524  1.00  0.00    -0.584 NA 
HETATM   10  N   UNL     1     -10.157  17.353  67.660  1.00  0.00    -0.314 NA 
HETATM   11  C   UNL     1     -10.012  17.757  66.340  1.00  0.00    -0.344 A  
HETATM   12  C   UNL     1     -10.286  18.255  68.723  1.00  0.00    -0.318 A  
HETATM   13  C   UNL     1     -10.410  20.594  69.574  1.00  0.00     0.452 C  
HETATM   14  C   UNL     1      -9.945  19.156  66.089  1.00  0.00    -0.441 A  
HETATM   15  C   UNL     1     -10.250  19.580  68.485  1.00  0.00    -0.517 A  
HETATM   16  C   UNL     1     -10.054  20.032  67.108  1.00  0.00    -0.587 A  
BRANCH   8  17
HETATM   17  C   UNL     1     -10.104  14.261  65.763  1.00  0.00    -0.356 A  
HETATM   18  C   UNL     1     -10.745  12.743  63.967  1.00  0.00    -0.457 A  
HETATM   19  C   UNL     1     -10.055  11.691  64.578  1.00  0.00    -0.321 A  
HETATM   20  C   UNL     1      -9.446  11.913  65.814  1.00  0.00    -0.210 A  
HETATM   21  C   UNL     1      -9.487  13.180  66.405  1.00  0.00    -0.226 A  
HETATM   22  C   UNL     1     -10.766  14.015  64.554  1.00  0.00    -0.355 A  
HETATM   23  C   UNL     1      -9.988  10.344  63.920  1.00  0.00    -0.269 C  
ENDBRANCH   8  17
ENDBRANCH   6   7
ENDBRANCH   3   6
TORSDOF 3
ENDMDL
MODEL       31
REMARK 921   NORMALIZED FREE ENERGY PREDICTED BY IDOCK:   -5.86 KCAL/MOL
REMARK 922        TOTAL FREE ENERGY PREDICTED BY IDOCK:   -7.73 KCAL/MOL
REMARK 923 INTER-LIGAND FREE ENERGY PREDICTED BY IDOCK:   -6.97 KCAL/MOL
REMARK 924 INTRA-LIGAND FREE ENERGY PREDICTED BY IDOCK:   -0.76 KCAL/MOL
REMARK 927      BINDING AFFINITY PREDICTED BY RF-SCORE:    0.00 PKD
ROOT
HETATM    1  C   UNL     1     -13.033  14.630  70.838  1.00  0.00    -0.365 C  
HETATM    2  N   UNL     1     -11.675  14.660  70.324  1.00  0.00    -0.283 N  
HETATM    3  C   UNL     1     -11.404  13.822  69.238  1.00  0.00    -0.273 C  
HETATM    4  C   UNL     1     -10.856  15.817  70.644  1.00  0.00    -0.258 C  
HETATM    5  O   UNL     1     -12.259  13.055  68.797  1.00  0.00    -0.223 OA 
ENDROOT
BRANCH   3   6
HETATM    6  C   UNL     1      -9.991  13.896  68.657  1.00  0.00    -0.189 C  
BRANCH   6   7
HETATM    7  C   UNL     1     -10.016  13.983  67.165  1.00  0.00    -0.252 A  
HETATM    8  C   UNL     1      -9.998  15.061  66.286  1.00  0.00    -0.281 A  
HETATM    9  N   UNL     1     -10.181  14.627  64.989  1.00  0.00    -0.397 NA 
HETATM   10  N   UNL     1     -10.073  12.862  66.353  1.00  0.00    -0.263 NA 
HETATM   11  C   UNL     1     -10.219  13.317  65.049  1.00  0.00    -0.297 A  
HETATM   12  C   UNL     1     -10.024  11.504  66.684  1.00  0.00    -0.207 A  
HETATM   13  C   UNL     1     -10.070   9.106  66.004  1.00  0.00    -0.204 C  
HETATM   14  C   UNL     1     -10.372  12.337  64.029  1.00  0.00    -0.423 A  
HETATM   15  C   UNL     1     -10.142  10.573  65.717  1.00  0.00    -0.329 A  
HETATM   16  C   UNL     1     -10.340  11.025  64.341  1.00  0.00    -0.424 A  
BRANCH   8  17
HETATM   17  C   UNL     1      -9.888  16.475  66.624  1.00  0.00    -0.279 A  
HETATM   18  C   UNL     1      -8.641  18.566  66.497  1.00  0.00    -0.289 A  
HETATM   19  C   UNL     1      -9.675  19.249  67.147  1.00  0.00    -0.409 A  
HETATM   20  C   UNL     1     -10.784  18.527  67.591  1.00  0.00    -0.405 A  
HETATM   21  C   UNL     1     -10.877  17.153  67.346  1.00  0.00    -0.164 A  
HETATM   22  C   UNL     1      -8.749  17.193  66.237  1.00  0.00    -0.268 A  
HETATM   23  C   UNL     1      -9.581  20.729  67.375  1.00  0.00    -0.484 C  
ENDBRANCH   8  17
ENDBRANCH   6   7
ENDBRANCH   3   6
TORSDOF 3
ENDMDL
MODEL       32
REMARK 921   NORMALIZED FREE ENERGY PREDICTED BY IDOCK:   -5.85 KCAL/MOL
REMARK 922        TOTAL FREE ENERGY PREDICTED BY IDOCK:   -7.72 KCAL/MOL
REMARK 923 INTER-LIGAND FREE ENERGY PREDICTED BY IDOCK:   -7.46 KCAL/MOL
REMARK 924 INTRA-LIGAND FREE ENERGY PREDICTED BY IDOCK:   -0.26 KCAL/MOL
REMARK 927      BINDING AFFINITY PREDICTED BY RF-SCORE:    0.00 PKD
ROOT
HETATM    1  C   UNL     1     -12.273  14.692  64.224  1.00  0.00    -0.408 C  
HETATM    2  N   UNL     1     -11.376  14.614  65.364  1.00  0.00    -0.335 N  
HETATM    3  C   UNL     1     -11.695  13.668  66.342  1.00  0.00    -0.373 C  
HETATM    4  C   UNL     1     -10.038  15.160  65.209  1.00  0.00    -0.330 C  
HETATM    5  O   UNL     1     -12.721  12.992  66.263  1.00  0.00    -0.281 OA 
ENDROOT
BRANCH   3   6
HETATM    6  C   UNL     1     -10.719  13.542  67.513  1.00  0.00    -0.266 C  
BRANCH   6   7
HETATM    7  C   UNL     1     -11.001  12.325  68.333  1.00  0.00    -0.236 A  
HETATM    8  C   UNL     1     -11.594  12.148  69.580  1.00  0.00    -0.315 A  
HETATM    9  N   UNL     1     -11.495  10.830  69.977  1.00  0.00    -0.306 NA 
HETATM   10  N   UNL     1     -10.662  11.049  67.916  1.00  0.00    -0.203 NA 
HETATM   11  C   UNL     1     -10.943  10.192  68.972  1.00  0.00    -0.226 A  
HETATM   12  C   UNL     1     -10.121  10.609  66.703  1.00  0.00    -0.220 A  
HETATM   13  C   UNL     1      -9.276   8.770  65.249  1.00  0.00    -0.099 C  
HETATM   14  C   UNL     1     -10.610   8.819  68.805  1.00  0.00    -0.174 A  
HETATM   15  C   UNL     1      -9.830   9.305  66.531  1.00  0.00    -0.331 A  
HETATM   16  C   UNL     1     -10.075   8.389  67.644  1.00  0.00    -0.268 A  
BRANCH   8  17
HETATM   17  C   UNL     1     -12.178  13.176  70.434  1.00  0.00    -0.389 A  
HETATM   18  C   UNL     1     -13.488  13.761  72.404  1.00  0.00    -0.672 A  
HETATM   19  C   UNL     1     -13.238  15.122  72.196  1.00  0.00    -0.470 A  
HETATM   20  C   UNL     1     -12.512  15.507  71.066  1.00  0.00    -0.492 A  
HETATM   21  C   UNL     1     -12.005  14.543  70.189  1.00  0.00    -0.377 A  
HETATM   22  C   UNL     1     -12.961  12.799  71.533  1.00  0.00    -0.388 A  
HETATM   23  C   UNL     1     -13.757  16.146  73.161  1.00  0.00    -0.297 C  
ENDBRANCH   8  17
ENDBRANCH   6   7
ENDBRANCH   3   6
TORSDOF 3
ENDMDL
MODEL       33
REMARK 921   NORMALIZED FREE ENERGY PREDICTED BY IDOCK:   -5.78 KCAL/MOL
REMARK 922        TOTAL FREE ENERGY PREDICTED BY IDOCK:   -7.64 KCAL/MOL
REMARK 923 INTER-LIGAND FREE ENERGY PREDICTED BY IDOCK:   -6.78 KCAL/MOL
REMARK 924 INTRA-LIGAND FREE ENERGY PREDICTED BY IDOCK:   -0.86 KCAL/MOL
REMARK 927      BINDING AFFINITY PREDICTED BY RF-SCORE:    0.00 PKD
ROOT
HETATM    1  C   UNL     1     -13.781   9.201  72.292  1.00  0.00    -0.487 C  
HETATM    2  N   UNL     1     -12.423   9.076  71.792  1.00  0.00    -0.344 N  
HETATM    3  C   UNL     1     -12.029  10.008  70.827  1.00  0.00    -0.335 C  
HETATM    4  C   UNL     1     -11.469   8.337  72.601  1.00  0.00    -0.353 C  
HETATM    5  O   UNL     1     -12.822  10.840  70.384  1.00  0.00    -0.313 OA 
ENDROOT
BRANCH   3   6
HETATM    6  C   UNL     1     -10.581   9.917  70.342  1.00  0.00    -0.364 C  
BRANCH   6   7
HETATM    7  C   UNL     1     -10.500   9.355  68.960  1.00  0.00    -0.217 A  
HETATM    8  C   UNL     1     -10.515   9.949  67.702  1.00  0.00    -0.244 A  
HETATM    9  N   UNL     1     -10.558   8.985  66.715  1.00  0.00    -0.190 NA 
HETATM   10  N   UNL     1     -10.390   7.998  68.711  1.00  0.00    -0.210 NA 
HETATM   11  C   UNL     1     -10.478   7.832  67.335  1.00  0.00    -0.292 A  
HETATM   12  C   UNL     1     -10.240   6.926  69.599  1.00  0.00    -0.193 A  
HETATM   13  C   UNL     1     -10.009   4.481  70.022  1.00  0.00    -0.280 C  
HETATM   14  C   UNL     1     -10.460   6.500  66.836  1.00  0.00    -0.347 A  
HETATM   15  C   UNL     1     -10.196   5.665  69.127  1.00  0.00    -0.305 A  
HETATM   16  C   UNL     1     -10.330   5.460  67.685  1.00  0.00    -0.235 A  
BRANCH   8  17
HETATM   17  C   UNL     1     -10.564  11.375  67.398  1.00  0.00    -0.257 A  
HETATM   18  C   UNL     1      -9.384  13.456  66.934  1.00  0.00    -0.253 A  
HETATM   19  C   UNL     1     -10.594  14.116  66.690  1.00  0.00    -0.278 A  
HETATM   20  C   UNL     1     -11.789  13.415  66.867  1.00  0.00    -0.453 A  
HETATM   21  C   UNL     1     -11.770  12.066  67.233  1.00  0.00    -0.339 A  
HETATM   22  C   UNL     1      -9.371  12.099  67.282  1.00  0.00    -0.183 A  
HETATM   23  C   UNL     1     -10.602  15.554  66.265  1.00  0.00    -0.310 C  
ENDBRANCH   8  17
ENDBRANCH   6   7
ENDBRANCH   3   6
TORSDOF 3
ENDMDL
MODEL       34
REMARK 921   NORMALIZED FREE ENERGY PREDICTED BY IDOCK:   -5.76 KCAL/MOL
REMARK 922        TOTAL FREE ENERGY PREDICTED BY IDOCK:   -7.62 KCAL/MOL
REMARK 923 INTER-LIGAND FREE ENERGY PREDICTED BY IDOCK:   -6.84 KCAL/MOL
REMARK 924 INTRA-LIGAND FREE ENERGY PREDICTED BY IDOCK:   -0.78 KCAL/MOL
REMARK 927      BINDING AFFINITY PREDICTED BY RF-SCORE:    0.00 PKD
ROOT
HETATM    1  C   UNL     1      -7.618   7.331  67.686  1.00  0.00    -0.110 C  
HETATM    2  N   UNL     1      -7.792   8.536  68.477  1.00  0.00    -0.107 N  
HETATM    3  C   UNL     1      -8.990   9.233  68.292  1.00  0.00    -0.129 C  
HETATM    4  C   UNL     1      -6.976   8.686  69.671  1.00  0.00    -0.050 C  
HETATM    5  O   UNL     1      -9.813   8.872  67.450  1.00  0.00    -0.169 OA 
ENDROOT
BRANCH   3   6
HETATM    6  C   UNL     1      -9.203  10.469  69.168  1.00  0.00    -0.183 C  
BRANCH   6   7
HETATM    7  C   UNL     1     -10.620  10.577  69.629  1.00  0.00    -0.242 A  
HETATM    8  C   UNL     1     -11.700  11.329  69.180  1.00  0.00    -0.341 A  
HETATM    9  N   UNL     1     -12.775  11.187  70.034  1.00  0.00    -0.134 NA 
HETATM   10  N   UNL     1     -11.111   9.858  70.706  1.00  0.00    -0.327 NA 
HETATM   11  C   UNL     1     -12.406  10.304  70.932  1.00  0.00    -0.373 A  
HETATM   12  C   UNL     1     -10.498   8.873  71.490  1.00  0.00    -0.323 A  
HETATM   13  C   UNL     1     -10.573   7.257  73.385  1.00  0.00    -0.435 C  
HETATM   14  C   UNL     1     -13.101   9.755  72.045  1.00  0.00    -0.546 A  
HETATM   15  C   UNL     1     -11.163   8.332  72.528  1.00  0.00    -0.446 A  
HETATM   16  C   UNL     1     -12.513   8.816  72.814  1.00  0.00    -0.101 A  
BRANCH   8  17
HETATM   17  C   UNL     1     -11.736  12.224  68.029  1.00  0.00    -0.417 A  
HETATM   18  C   UNL     1     -11.714  12.523  65.610  1.00  0.00    -0.473 A  
HETATM   19  C   UNL     1     -11.920  13.900  65.754  1.00  0.00    -0.419 A  
HETATM   20  C   UNL     1     -11.965  14.442  67.040  1.00  0.00    -0.424 A  
HETATM   21  C   UNL     1     -11.857  13.612  68.161  1.00  0.00    -0.407 A  
HETATM   22  C   UNL     1     -11.626  11.695  66.736  1.00  0.00    -0.220 A  
HETATM   23  C   UNL     1     -12.069  14.775  64.546  1.00  0.00    -0.460 C  
ENDBRANCH   8  17
ENDBRANCH   6   7
ENDBRANCH   3   6
TORSDOF 3
ENDMDL
MODEL       35
REMARK 921   NORMALIZED FREE ENERGY PREDICTED BY IDOCK:   -5.76 KCAL/MOL
REMARK 922        TOTAL FREE ENERGY PREDICTED BY IDOCK:   -7.61 KCAL/MOL
REMARK 923 INTER-LIGAND FREE ENERGY PREDICTED BY IDOCK:   -6.88 KCAL/MOL
REMARK 924 INTRA-LIGAND FREE ENERGY PREDICTED BY IDOCK:   -0.73 KCAL/MOL
REMARK 927      BINDING AFFINITY PREDICTED BY RF-SCORE:    0.00 PKD
ROOT
HETATM    1  C   UNL     1      -7.839  10.148  65.443  1.00  0.00    -0.142 C  
HETATM    2  N   UNL     1      -9.261  10.340  65.669  1.00  0.00    -0.172 N  
HETATM    3  C   UNL     1      -9.633  10.775  66.945  1.00  0.00    -0.171 C  
HETATM    4  C   UNL     1     -10.115  10.507  64.506  1.00  0.00    -0.332 C  
HETATM    5  O   UNL     1      -8.797  10.917  67.838  1.00  0.00    -0.130 OA 
ENDROOT
BRANCH   3   6
HETATM    6  C   UNL     1     -11.123  11.036  67.169  1.00  0.00    -0.333 C  
BRANCH   6   7
HETATM    7  C   UNL     1     -11.351  11.956  68.325  1.00  0.00    -0.277 A  
HETATM    8  C   UNL     1     -11.678  11.726  69.658  1.00  0.00    -0.344 A  
HETATM    9  N   UNL     1     -11.922  12.920  70.306  1.00  0.00    -0.327 NA 
HETATM   10  N   UNL     1     -11.262  13.333  68.212  1.00  0.00    -0.260 NA 
HETATM   11  C   UNL     1     -11.665  13.864  69.431  1.00  0.00    -0.315 A  
HETATM   12  C   UNL     1     -10.877  14.127  67.127  1.00  0.00    -0.290 A  
HETATM   13  C   UNL     1     -10.480  16.372  66.119  1.00  0.00    -0.321 C  
HETATM   14  C   UNL     1     -11.725  15.281  69.538  1.00  0.00    -0.359 A  
HETATM   15  C   UNL     1     -10.906  15.470  67.234  1.00  0.00    -0.313 A  
HETATM   16  C   UNL     1     -11.368  16.054  68.492  1.00  0.00    -0.382 A  
BRANCH   8  17
HETATM   17  C   UNL     1     -11.840  10.436  70.319  1.00  0.00    -0.399 A  
HETATM   18  C   UNL     1     -13.232   8.906  71.607  1.00  0.00    -0.411 A  
HETATM   19  C   UNL     1     -12.258   7.906  71.517  1.00  0.00    -0.338 A  
HETATM   20  C   UNL     1     -11.050   8.199  70.883  1.00  0.00    -0.280 A  
HETATM   21  C   UNL     1     -10.840   9.457  70.307  1.00  0.00    -0.303 A  
HETATM   22  C   UNL     1     -13.025  10.157  71.011  1.00  0.00    -0.473 A  
HETATM   23  C   UNL     1     -12.506   6.550  72.108  1.00  0.00    -0.205 C  
ENDBRANCH   8  17
ENDBRANCH   6   7
ENDBRANCH   3   6
TORSDOF 3
ENDMDL
MODEL       36
REMARK 921   NORMALIZED FREE ENERGY PREDICTED BY IDOCK:   -5.76 KCAL/MOL
REMARK 922        TOTAL FREE ENERGY PREDICTED BY IDOCK:   -7.61 KCAL/MOL
REMARK 923 INTER-LIGAND FREE ENERGY PREDICTED BY IDOCK:   -6.65 KCAL/MOL
REMARK 924 INTRA-LIGAND FREE ENERGY PREDICTED BY IDOCK:   -0.96 KCAL/MOL
REMARK 927      BINDING AFFINITY PREDICTED BY RF-SCORE:    0.00 PKD
ROOT
HETATM    1  C   UNL     1      -8.046   8.803  68.424  1.00  0.00    -0.117 C  
HETATM    2  N   UNL     1      -9.471   9.082  68.414  1.00  0.00    -0.145 N  
HETATM    3  C   UNL     1      -9.840  10.428  68.493  1.00  0.00    -0.167 C  
HETATM    4  C   UNL     1     -10.358   8.058  67.889  1.00  0.00    -0.222 C  
HETATM    5  O   UNL     1      -8.995  11.313  68.635  1.00  0.00    -0.168 OA 
ENDROOT
BRANCH   3   6
HETATM    6  C   UNL     1     -11.338  10.730  68.422  1.00  0.00    -0.367 C  
BRANCH   6   7
HETATM    7  C   UNL     1     -11.836  11.338  69.693  1.00  0.00    -0.360 A  
HETATM    8  C   UNL     1     -12.223  10.786  70.911  1.00  0.00    -0.384 A  
HETATM    9  N   UNL     1     -12.748  11.759  71.736  1.00  0.00    -0.256 NA 
HETATM   10  N   UNL     1     -12.008  12.703  69.851  1.00  0.00    -0.323 NA 
HETATM   11  C   UNL     1     -12.607  12.893  71.090  1.00  0.00    -0.281 A  
HETATM   12  C   UNL     1     -11.695  13.758  68.987  1.00  0.00    -0.331 A  
HETATM   13  C   UNL     1     -11.661  16.196  68.472  1.00  0.00    -0.265 C  
HETATM   14  C   UNL     1     -12.950  14.225  71.452  1.00  0.00    -0.411 A  
HETATM   15  C   UNL     1     -11.995  15.024  69.339  1.00  0.00    -0.336 A  
HETATM   16  C   UNL     1     -12.665  15.247  70.619  1.00  0.00    -0.470 A  
BRANCH   8  17
HETATM   17  C   UNL     1     -12.185   9.379  71.295  1.00  0.00    -0.425 A  
HETATM   18  C   UNL     1     -10.928   7.484  72.171  1.00  0.00    -0.293 A  
HETATM   19  C   UNL     1     -12.079   6.688  72.168  1.00  0.00    -0.299 A  
HETATM   20  C   UNL     1     -13.266   7.225  71.664  1.00  0.00    -0.421 A  
HETATM   21  C   UNL     1     -13.310   8.550  71.218  1.00  0.00    -0.168 A  
HETATM   22  C   UNL     1     -10.983   8.816  71.741  1.00  0.00    -0.415 A  
HETATM   23  C   UNL     1     -12.030   5.280  72.681  1.00  0.00    -0.023 C  
ENDBRANCH   8  17
ENDBRANCH   6   7
ENDBRANCH   3   6
TORSDOF 3
ENDMDL
MODEL       37
REMARK 921   NORMALIZED FREE ENERGY PREDICTED BY IDOCK:   -5.64 KCAL/MOL
REMARK 922        TOTAL FREE ENERGY PREDICTED BY IDOCK:   -7.47 KCAL/MOL
REMARK 923 INTER-LIGAND FREE ENERGY PREDICTED BY IDOCK:   -6.87 KCAL/MOL
REMARK 924 INTRA-LIGAND FREE ENERGY PREDICTED BY IDOCK:   -0.61 KCAL/MOL
REMARK 927      BINDING AFFINITY PREDICTED BY RF-SCORE:    0.00 PKD
ROOT
HETATM    1  C   UNL     1     -13.448  15.477  71.337  1.00  0.00    -0.499 C  
HETATM    2  N   UNL     1     -12.225  15.217  70.598  1.00  0.00    -0.322 N  
HETATM    3  C   UNL     1     -11.991  13.887  70.233  1.00  0.00    -0.331 C  
HETATM    4  C   UNL     1     -11.591  16.336  69.922  1.00  0.00    -0.132 C  
HETATM    5  O   UNL     1     -12.753  12.987  70.587  1.00  0.00    -0.214 OA 
ENDROOT
BRANCH   3   6
HETATM    6  C   UNL     1     -10.736  13.618  69.403  1.00  0.00     0.019 C  
BRANCH   6   7
HETATM    7  C   UNL     1     -10.990  12.602  68.337  1.00  0.00    -0.257 A  
HETATM    8  C   UNL     1     -11.020  11.211  68.353  1.00  0.00    -0.227 A  
HETATM    9  N   UNL     1     -11.159  10.718  67.072  1.00  0.00    -0.255 NA 
HETATM   10  N   UNL     1     -11.257  12.948  67.024  1.00  0.00    -0.276 NA 
HETATM   11  C   UNL     1     -11.303  11.766  66.296  1.00  0.00    -0.287 A  
HETATM   12  C   UNL     1     -11.440  14.208  66.441  1.00  0.00    -0.354 A  
HETATM   13  C   UNL     1     -11.882  15.623  64.438  1.00  0.00    -0.183 C  
HETATM   14  C   UNL     1     -11.498  11.871  64.891  1.00  0.00    -0.315 A  
HETATM   15  C   UNL     1     -11.652  14.309  65.114  1.00  0.00    -0.355 A  
HETATM   16  C   UNL     1     -11.661  13.082  64.319  1.00  0.00    -0.444 A  
BRANCH   8  17
HETATM   17  C   UNL     1     -10.852  10.336  69.508  1.00  0.00    -0.292 A  
HETATM   18  C   UNL     1      -9.386   9.000  70.924  1.00  0.00    -0.326 A  
HETATM   19  C   UNL     1     -10.440   8.733  71.805  1.00  0.00    -0.417 A  
HETATM   20  C   UNL     1     -11.713   9.216  71.496  1.00  0.00    -0.433 A  
HETATM   21  C   UNL     1     -11.915   9.993  70.351  1.00  0.00    -0.318 A  
HETATM   22  C   UNL     1      -9.590   9.796  69.790  1.00  0.00    -0.256 A  
HETATM   23  C   UNL     1     -10.204   7.926  73.047  1.00  0.00    -0.394 C  
ENDBRANCH   8  17
ENDBRANCH   6   7
ENDBRANCH   3   6
TORSDOF 3
ENDMDL
MODEL       38
REMARK 921   NORMALIZED FREE ENERGY PREDICTED BY IDOCK:   -5.63 KCAL/MOL
REMARK 922        TOTAL FREE ENERGY PREDICTED BY IDOCK:   -7.46 KCAL/MOL
REMARK 923 INTER-LIGAND FREE ENERGY PREDICTED BY IDOCK:   -6.70 KCAL/MOL
REMARK 924 INTRA-LIGAND FREE ENERGY PREDICTED BY IDOCK:   -0.77 KCAL/MOL
REMARK 927      BINDING AFFINITY PREDICTED BY RF-SCORE:    0.00 PKD
ROOT
HETATM    1  C   UNL     1     -11.694  15.561  64.216  1.00  0.00    -0.190 C  
HETATM    2  N   UNL     1     -11.823  14.144  64.510  1.00  0.00    -0.419 N  
HETATM    3  C   UNL     1     -11.951  13.799  65.859  1.00  0.00    -0.406 C  
HETATM    4  C   UNL     1     -12.249  13.266  63.433  1.00  0.00    -0.403 C  
HETATM    5  O   UNL     1     -11.887  14.653  66.743  1.00  0.00    -0.377 OA 
ENDROOT
BRANCH   3   6
HETATM    6  C   UNL     1     -12.148  12.314  66.167  1.00  0.00    -0.189 C  
BRANCH   6   7
HETATM    7  C   UNL     1     -10.955  11.734  66.856  1.00  0.00    -0.285 A  
HETATM    8  C   UNL     1     -10.585  11.664  68.196  1.00  0.00    -0.201 A  
HETATM    9  N   UNL     1      -9.310  11.151  68.317  1.00  0.00    -0.169 NA 
HETATM   10  N   UNL     1      -9.924  11.116  66.169  1.00  0.00    -0.221 NA 
HETATM   11  C   UNL     1      -8.936  10.826  67.101  1.00  0.00    -0.141 A  
HETATM   12  C   UNL     1      -9.797  10.817  64.808  1.00  0.00    -0.300 A  
HETATM   13  C   UNL     1      -8.484   9.871  62.913  1.00  0.00    -0.172 C  
HETATM   14  C   UNL     1      -7.732  10.244  66.617  1.00  0.00    -0.113 A  
HETATM   15  C   UNL     1      -8.669  10.240  64.350  1.00  0.00    -0.209 A  
HETATM   16  C   UNL     1      -7.596   9.965  65.305  1.00  0.00    -0.130 A  
BRANCH   8  17
HETATM   17  C   UNL     1     -11.350  12.125  69.349  1.00  0.00    -0.311 A  
HETATM   18  C   UNL     1     -12.162  13.970  70.718  1.00  0.00    -0.438 A  
HETATM   19  C   UNL     1     -12.916  13.089  71.501  1.00  0.00    -0.398 A  
HETATM   20  C   UNL     1     -12.831  11.719  71.243  1.00  0.00    -0.409 A  
HETATM   21  C   UNL     1     -12.043  11.246  70.190  1.00  0.00    -0.448 A  
HETATM   22  C   UNL     1     -11.390  13.492  69.652  1.00  0.00    -0.219 A  
HETATM   23  C   UNL     1     -13.785  13.610  72.607  1.00  0.00    -0.551 C  
ENDBRANCH   8  17
ENDBRANCH   6   7
ENDBRANCH   3   6
TORSDOF 3
ENDMDL
MODEL       39
REMARK 921   NORMALIZED FREE ENERGY PREDICTED BY IDOCK:   -5.63 KCAL/MOL
REMARK 922        TOTAL FREE ENERGY PREDICTED BY IDOCK:   -7.46 KCAL/MOL
REMARK 923 INTER-LIGAND FREE ENERGY PREDICTED BY IDOCK:   -6.52 KCAL/MOL
REMARK 924 INTRA-LIGAND FREE ENERGY PREDICTED BY IDOCK:   -0.94 KCAL/MOL
REMARK 927      BINDING AFFINITY PREDICTED BY RF-SCORE:    0.00 PKD
ROOT
HETATM    1  C   UNL     1      -6.371  11.529  69.509  1.00  0.00    -0.116 C  
HETATM    2  N   UNL     1      -7.572  11.188  68.767  1.00  0.00    -0.122 N  
HETATM    3  C   UNL     1      -8.469  10.323  69.401  1.00  0.00    -0.160 C  
HETATM    4  C   UNL     1      -7.969  12.068  67.681  1.00  0.00    -0.150 C  
HETATM    5  O   UNL     1      -8.210   9.830  70.499  1.00  0.00    -0.209 OA 
ENDROOT
BRANCH   3   6
HETATM    6  C   UNL     1      -9.763  10.011  68.648  1.00  0.00    -0.165 C  
BRANCH   6   7
HETATM    7  C   UNL     1     -10.964  10.485  69.400  1.00  0.00    -0.250 A  
HETATM    8  C   UNL     1     -11.681  11.678  69.371  1.00  0.00    -0.340 A  
HETATM    9  N   UNL     1     -12.637  11.689  70.366  1.00  0.00    -0.182 NA 
HETATM   10  N   UNL     1     -11.605   9.708  70.350  1.00  0.00    -0.255 NA 
HETATM   11  C   UNL     1     -12.579  10.507  70.934  1.00  0.00    -0.398 A  
HETATM   12  C   UNL     1     -11.377   8.382  70.735  1.00  0.00    -0.265 A  
HETATM   13  C   UNL     1     -11.931   6.417  72.165  1.00  0.00    -0.346 C  
HETATM   14  C   UNL     1     -13.332   9.944  72.001  1.00  0.00    -0.532 A  
HETATM   15  C   UNL     1     -12.108   7.836  71.727  1.00  0.00    -0.332 A  
HETATM   16  C   UNL     1     -13.110   8.671  72.388  1.00  0.00    -0.396 A  
BRANCH   8  17
HETATM   17  C   UNL     1     -11.453  12.824  68.499  1.00  0.00    -0.344 A  
HETATM   18  C   UNL     1     -10.581  15.079  68.194  1.00  0.00    -0.248 A  
HETATM   19  C   UNL     1     -10.877  15.035  66.827  1.00  0.00    -0.318 A  
HETATM   20  C   UNL     1     -11.522  13.908  66.316  1.00  0.00    -0.347 A  
HETATM   21  C   UNL     1     -11.820  12.825  67.149  1.00  0.00    -0.415 A  
HETATM   22  C   UNL     1     -10.864  13.984  69.020  1.00  0.00    -0.268 A  
HETATM   23  C   UNL     1     -10.521  16.188  65.936  1.00  0.00    -0.366 C  
ENDBRANCH   8  17
ENDBRANCH   6   7
ENDBRANCH   3   6
TORSDOF 3
ENDMDL
MODEL       40
REMARK 921   NORMALIZED FREE ENERGY PREDICTED BY IDOCK:   -5.61 KCAL/MOL
REMARK 922        TOTAL FREE ENERGY PREDICTED BY IDOCK:   -7.44 KCAL/MOL
REMARK 923 INTER-LIGAND FREE ENERGY PREDICTED BY IDOCK:   -6.82 KCAL/MOL
REMARK 924 INTRA-LIGAND FREE ENERGY PREDICTED BY IDOCK:   -0.62 KCAL/MOL
REMARK 927      BINDING AFFINITY PREDICTED BY RF-SCORE:    0.00 PKD
ROOT
HETATM    1  C   UNL     1     -14.340   7.344  71.672  1.00  0.00    -0.461 C  
HETATM    2  N   UNL     1     -13.006   7.795  71.315  1.00  0.00    -0.266 N  
HETATM    3  C   UNL     1     -12.701   9.127  71.609  1.00  0.00    -0.358 C  
HETATM    4  C   UNL     1     -11.982   6.783  71.113  1.00  0.00    -0.370 C  
HETATM    5  O   UNL     1     -13.549   9.884  72.081  1.00  0.00    -0.409 OA 
ENDROOT
BRANCH   3   6
HETATM    6  C   UNL     1     -11.278   9.588  71.289  1.00  0.00    -0.452 C  
BRANCH   6   7
HETATM    7  C   UNL     1     -11.175  10.123  69.898  1.00  0.00    -0.287 A  
HETATM    8  C   UNL     1     -10.760   9.552  68.699  1.00  0.00    -0.184 A  
HETATM    9  N   UNL     1     -10.710  10.506  67.703  1.00  0.00    -0.254 NA 
HETATM   10  N   UNL     1     -11.514  11.426  69.573  1.00  0.00    -0.286 NA 
HETATM   11  C   UNL     1     -11.167  11.612  68.241  1.00  0.00    -0.260 A  
HETATM   12  C   UNL     1     -12.078  12.436  70.361  1.00  0.00    -0.297 A  
HETATM   13  C   UNL     1     -12.910  14.771  70.617  1.00  0.00    -0.398 C  
HETATM   14  C   UNL     1     -11.358  12.910  67.692  1.00  0.00    -0.349 A  
HETATM   15  C   UNL     1     -12.286  13.659  69.836  1.00  0.00    -0.367 A  
HETATM   16  C   UNL     1     -11.888  13.894  68.448  1.00  0.00    -0.409 A  
BRANCH   8  17
HETATM   17  C   UNL     1     -10.344   8.172  68.475  1.00  0.00    -0.230 A  
HETATM   18  C   UNL     1      -8.851   6.324  69.019  1.00  0.00    -0.124 A  
HETATM   19  C   UNL     1      -9.565   5.468  68.173  1.00  0.00    -0.144 A  
HETATM   20  C   UNL     1     -10.626   5.987  67.430  1.00  0.00    -0.355 A  
HETATM   21  C   UNL     1     -10.997   7.329  67.570  1.00  0.00    -0.221 A  
HETATM   22  C   UNL     1      -9.240   7.661  69.170  1.00  0.00    -0.141 A  
HETATM   23  C   UNL     1      -9.180   4.023  68.056  1.00  0.00    -0.200 C  
ENDBRANCH   8  17
ENDBRANCH   6   7
ENDBRANCH   3   6
TORSDOF 3
ENDMDL
MODEL       41
REMARK 921   NORMALIZED FREE ENERGY PREDICTED BY IDOCK:   -5.58 KCAL/MOL
REMARK 922        TOTAL FREE ENERGY PREDICTED BY IDOCK:   -7.40 KCAL/MOL
REMARK 923 INTER-LIGAND FREE ENERGY PREDICTED BY IDOCK:   -6.52 KCAL/MOL
REMARK 924 INTRA-LIGAND FREE ENERGY PREDICTED BY IDOCK:   -0.89 KCAL/MOL
REMARK 927      BINDING AFFINITY PREDICTED BY RF-SCORE:    0.00 PKD
ROOT
HETATM    1  C   UNL     1      -8.119   7.778  69.357  1.00  0.00    -0.126 C  
HETATM    2  N   UNL     1      -9.462   8.270  69.107  1.00  0.00    -0.155 N  
HETATM    3  C   UNL     1      -9.674   9.634  69.331  1.00  0.00    -0.194 C  
HETATM    4  C   UNL     1     -10.327   7.473  68.254  1.00  0.00    -0.195 C  
HETATM    5  O   UNL     1      -8.782  10.352  69.782  1.00  0.00    -0.114 OA 
ENDROOT
BRANCH   3   6
HETATM    6  C   UNL     1     -11.071  10.168  69.011  1.00  0.00    -0.249 C  
BRANCH   6   7
HETATM    7  C   UNL     1     -11.733  10.735  70.224  1.00  0.00    -0.352 A  
HETATM    8  C   UNL     1     -12.153  10.163  71.421  1.00  0.00    -0.382 A  
HETATM    9  N   UNL     1     -12.845  11.084  72.179  1.00  0.00    -0.202 NA 
HETATM   10  N   UNL     1     -12.066  12.075  70.336  1.00  0.00    -0.355 NA 
HETATM   11  C   UNL     1     -12.778  12.217  71.519  1.00  0.00    -0.243 A  
HETATM   12  C   UNL     1     -11.802  13.146  69.474  1.00  0.00    -0.322 A  
HETATM   13  C   UNL     1     -11.993  15.564  68.904  1.00  0.00    -0.306 C  
HETATM   14  C   UNL     1     -13.293  13.508  71.821  1.00  0.00    -0.480 A  
HETATM   15  C   UNL     1     -12.265  14.375  69.770  1.00  0.00    -0.370 A  
HETATM   16  C   UNL     1     -13.056  14.542  70.989  1.00  0.00    -0.429 A  
BRANCH   8  17
HETATM   17  C   UNL     1     -11.992   8.775  71.841  1.00  0.00    -0.435 A  
HETATM   18  C   UNL     1     -12.836   6.489  71.874  1.00  0.00    -0.119 A  
HETATM   19  C   UNL     1     -11.678   6.045  72.522  1.00  0.00    -0.280 A  
HETATM   20  C   UNL     1     -10.710   6.983  72.886  1.00  0.00    -0.320 A  
HETATM   21  C   UNL     1     -10.877   8.334  72.563  1.00  0.00    -0.421 A  
HETATM   22  C   UNL     1     -12.989   7.839  71.535  1.00  0.00    -0.357 A  
HETATM   23  C   UNL     1     -11.493   4.590  72.835  1.00  0.00    -0.111 C  
ENDBRANCH   8  17
ENDBRANCH   6   7
ENDBRANCH   3   6
TORSDOF 3
ENDMDL
MODEL       42
REMARK 921   NORMALIZED FREE ENERGY PREDICTED BY IDOCK:   -5.54 KCAL/MOL
REMARK 922        TOTAL FREE ENERGY PREDICTED BY IDOCK:   -7.36 KCAL/MOL
REMARK 923 INTER-LIGAND FREE ENERGY PREDICTED BY IDOCK:   -7.14 KCAL/MOL
REMARK 924 INTRA-LIGAND FREE ENERGY PREDICTED BY IDOCK:   -0.22 KCAL/MOL
REMARK 927      BINDING AFFINITY PREDICTED BY RF-SCORE:    0.00 PKD
ROOT
HETATM    1  C   UNL     1     -12.490  12.632  63.456  1.00  0.00    -0.418 C  
HETATM    2  N   UNL     1     -11.293  12.470  64.263  1.00  0.00    -0.336 N  
HETATM    3  C   UNL     1     -11.484  12.378  65.645  1.00  0.00    -0.367 C  
HETATM    4  C   UNL     1     -10.094  11.980  63.604  1.00  0.00    -0.415 C  
HETATM    5  O   UNL     1     -12.604  12.500  66.142  1.00  0.00    -0.397 OA 
ENDROOT
BRANCH   3   6
HETATM    6  C   UNL     1     -10.232  12.147  66.492  1.00  0.00    -0.230 C  
BRANCH   6   7
HETATM    7  C   UNL     1     -10.288  10.836  67.207  1.00  0.00    -0.220 A  
HETATM    8  C   UNL     1     -10.821  10.456  68.435  1.00  0.00    -0.245 A  
HETATM    9  N   UNL     1     -10.492   9.147  68.718  1.00  0.00    -0.218 NA 
HETATM   10  N   UNL     1      -9.744   9.676  66.682  1.00  0.00    -0.194 NA 
HETATM   11  C   UNL     1      -9.856   8.698  67.662  1.00  0.00    -0.180 A  
HETATM   12  C   UNL     1      -9.156   9.438  65.434  1.00  0.00    -0.226 A  
HETATM   13  C   UNL     1      -8.033   7.899  63.828  1.00  0.00    -0.119 C  
HETATM   14  C   UNL     1      -9.297   7.422  67.378  1.00  0.00    -0.154 A  
HETATM   15  C   UNL     1      -8.649   8.222  65.152  1.00  0.00    -0.132 A  
HETATM   16  C   UNL     1      -8.716   7.188  66.183  1.00  0.00    -0.164 A  
BRANCH   8  17
HETATM   17  C   UNL     1     -11.558  11.293  69.374  1.00  0.00    -0.390 A  
HETATM   18  C   UNL     1     -12.973  11.473  71.351  1.00  0.00    -0.450 A  
HETATM   19  C   UNL     1     -12.909  12.870  71.299  1.00  0.00    -0.361 A  
HETATM   20  C   UNL     1     -12.223  13.473  70.244  1.00  0.00    -0.417 A  
HETATM   21  C   UNL     1     -11.571  12.690  69.285  1.00  0.00    -0.376 A  
HETATM   22  C   UNL     1     -12.302  10.694  70.399  1.00  0.00    -0.428 A  
HETATM   23  C   UNL     1     -13.583  13.699  72.351  1.00  0.00    -0.703 C  
ENDBRANCH   8  17
ENDBRANCH   6   7
ENDBRANCH   3   6
TORSDOF 3
ENDMDL
MODEL       43
REMARK 921   NORMALIZED FREE ENERGY PREDICTED BY IDOCK:   -5.53 KCAL/MOL
REMARK 922        TOTAL FREE ENERGY PREDICTED BY IDOCK:   -7.35 KCAL/MOL
REMARK 923 INTER-LIGAND FREE ENERGY PREDICTED BY IDOCK:   -6.55 KCAL/MOL
REMARK 924 INTRA-LIGAND FREE ENERGY PREDICTED BY IDOCK:   -0.80 KCAL/MOL
REMARK 927      BINDING AFFINITY PREDICTED BY RF-SCORE:    0.00 PKD
ROOT
HETATM    1  C   UNL     1      -8.608  16.456  68.727  1.00  0.00    -0.250 C  
HETATM    2  N   UNL     1      -9.871  15.846  68.352  1.00  0.00    -0.211 N  
HETATM    3  C   UNL     1      -9.831  14.490  68.015  1.00  0.00    -0.222 C  
HETATM    4  C   UNL     1     -11.094  16.513  68.768  1.00  0.00    -0.309 C  
HETATM    5  O   UNL     1      -8.764  13.876  67.975  1.00  0.00    -0.164 OA 
ENDROOT
BRANCH   3   6
HETATM    6  C   UNL     1     -11.169  13.831  67.678  1.00  0.00    -0.316 C  
BRANCH   6   7
HETATM    7  C   UNL     1     -11.267  12.459  68.264  1.00  0.00    -0.263 A  
HETATM    8  C   UNL     1     -10.822  11.216  67.825  1.00  0.00    -0.239 A  
HETATM    9  N   UNL     1     -11.286  10.218  68.657  1.00  0.00    -0.234 NA 
HETATM   10  N   UNL     1     -11.898  12.206  69.470  1.00  0.00    -0.322 NA 
HETATM   11  C   UNL     1     -11.919  10.827  69.632  1.00  0.00    -0.313 A  
HETATM   12  C   UNL     1     -12.455  13.090  70.401  1.00  0.00    -0.194 A  
HETATM   13  C   UNL     1     -13.654  13.502  72.547  1.00  0.00    -0.674 C  
HETATM   14  C   UNL     1     -12.585  10.314  70.779  1.00  0.00    -0.442 A  
HETATM   15  C   UNL     1     -13.064  12.609  71.502  1.00  0.00    -0.373 A  
HETATM   16  C   UNL     1     -13.138  11.159  71.675  1.00  0.00    -0.529 A  
BRANCH   8  17
HETATM   17  C   UNL     1     -10.047  10.928  66.624  1.00  0.00    -0.264 A  
HETATM   18  C   UNL     1      -9.909  10.854  64.191  1.00  0.00    -0.369 A  
HETATM   19  C   UNL     1      -8.556  10.502  64.255  1.00  0.00    -0.156 A  
HETATM   20  C   UNL     1      -7.973  10.299  65.507  1.00  0.00    -0.151 A  
HETATM   21  C   UNL     1      -8.717  10.494  66.675  1.00  0.00    -0.138 A  
HETATM   22  C   UNL     1     -10.645  11.067  65.364  1.00  0.00    -0.270 A  
HETATM   23  C   UNL     1      -7.758  10.328  62.998  1.00  0.00    -0.145 C  
ENDBRANCH   8  17
ENDBRANCH   6   7
ENDBRANCH   3   6
TORSDOF 3
ENDMDL
MODEL       44
REMARK 921   NORMALIZED FREE ENERGY PREDICTED BY IDOCK:   -5.52 KCAL/MOL
REMARK 922        TOTAL FREE ENERGY PREDICTED BY IDOCK:   -7.33 KCAL/MOL
REMARK 923 INTER-LIGAND FREE ENERGY PREDICTED BY IDOCK:   -6.66 KCAL/MOL
REMARK 924 INTRA-LIGAND FREE ENERGY PREDICTED BY IDOCK:   -0.67 KCAL/MOL
REMARK 927      BINDING AFFINITY PREDICTED BY RF-SCORE:    0.00 PKD
ROOT
HETATM    1  C   UNL     1      -6.597  11.457  69.064  1.00  0.00    -0.086 C  
HETATM    2  N   UNL     1      -7.998  11.197  68.782  1.00  0.00    -0.143 N  
HETATM    3  C   UNL     1      -8.710  12.231  68.168  1.00  0.00    -0.186 C  
HETATM    4  C   UNL     1      -8.433   9.811  68.733  1.00  0.00    -0.122 C  
HETATM    5  O   UNL     1      -8.184  13.322  67.946  1.00  0.00    -0.137 OA 
ENDROOT
BRANCH   3   6
HETATM    6  C   UNL     1     -10.169  11.939  67.815  1.00  0.00    -0.211 C  
BRANCH   6   7
HETATM    7  C   UNL     1     -11.105  12.534  68.817  1.00  0.00    -0.270 A  
HETATM    8  C   UNL     1     -11.533  13.838  69.046  1.00  0.00    -0.305 A  
HETATM    9  N   UNL     1     -12.299  13.899  70.192  1.00  0.00    -0.342 NA 
HETATM   10  N   UNL     1     -11.752  11.774  69.778  1.00  0.00    -0.324 NA 
HETATM   11  C   UNL     1     -12.422  12.661  70.609  1.00  0.00    -0.239 A  
HETATM   12  C   UNL     1     -11.771  10.388  69.970  1.00  0.00    -0.286 A  
HETATM   13  C   UNL     1     -12.527   8.391  71.256  1.00  0.00    -0.264 C  
HETATM   14  C   UNL     1     -13.111  12.115  71.727  1.00  0.00    -0.457 A  
HETATM   15  C   UNL     1     -12.446   9.865  71.013  1.00  0.00    -0.441 A  
HETATM   16  C   UNL     1     -13.124  10.781  71.928  1.00  0.00    -0.557 A  
BRANCH   8  17
HETATM   17  C   UNL     1     -11.189  15.028  68.276  1.00  0.00    -0.309 A  
HETATM   18  C   UNL     1     -10.627  17.399  68.230  1.00  0.00    -0.366 A  
HETATM   19  C   UNL     1     -10.404  17.344  66.850  1.00  0.00    -0.317 A  
HETATM   20  C   UNL     1     -10.640  16.143  66.178  1.00  0.00    -0.288 A  
HETATM   21  C   UNL     1     -11.044  15.005  66.884  1.00  0.00    -0.331 A  
HETATM   22  C   UNL     1     -11.013  16.252  68.935  1.00  0.00    -0.334 A  
HETATM   23  C   UNL     1      -9.937  18.561  66.107  1.00  0.00    -0.341 C  
ENDBRANCH   8  17
ENDBRANCH   6   7
ENDBRANCH   3   6
TORSDOF 3
ENDMDL
MODEL       45
REMARK 921   NORMALIZED FREE ENERGY PREDICTED BY IDOCK:   -5.50 KCAL/MOL
REMARK 922        TOTAL FREE ENERGY PREDICTED BY IDOCK:   -7.31 KCAL/MOL
REMARK 923 INTER-LIGAND FREE ENERGY PREDICTED BY IDOCK:   -6.23 KCAL/MOL
REMARK 924 INTRA-LIGAND FREE ENERGY PREDICTED BY IDOCK:   -1.07 KCAL/MOL
REMARK 927      BINDING AFFINITY PREDICTED BY RF-SCORE:    0.00 PKD
ROOT
HETATM    1  C   UNL     1     -12.908   9.686  71.472  1.00  0.00    -0.392 C  
HETATM    2  N   UNL     1     -11.616   9.768  70.814  1.00  0.00    -0.314 N  
HETATM    3  C   UNL     1     -11.494  10.725  69.803  1.00  0.00    -0.311 C  
HETATM    4  C   UNL     1     -10.467   9.212  71.509  1.00  0.00    -0.352 C  
HETATM    5  O   UNL     1     -12.458  11.406  69.452  1.00  0.00    -0.213 OA 
ENDROOT
BRANCH   3   6
HETATM    6  C   UNL     1     -10.118  10.855  69.149  1.00  0.00    -0.198 C  
BRANCH   6   7
HETATM    7  C   UNL     1     -10.091  10.221  67.796  1.00  0.00    -0.180 A  
HETATM    8  C   UNL     1      -9.928   8.904  67.378  1.00  0.00    -0.209 A  
HETATM    9  N   UNL     1      -9.834   8.843  66.003  1.00  0.00    -0.257 NA 
HETATM   10  N   UNL     1     -10.236  10.949  66.627  1.00  0.00    -0.226 NA 
HETATM   11  C   UNL     1     -10.024  10.069  65.575  1.00  0.00    -0.296 A  
HETATM   12  C   UNL     1     -10.519  12.307  66.438  1.00  0.00    -0.236 A  
HETATM   13  C   UNL     1     -10.898  14.249  64.923  1.00  0.00    -0.429 C  
HETATM   14  C   UNL     1     -10.053  10.606  64.258  1.00  0.00    -0.411 A  
HETATM   15  C   UNL     1     -10.574  12.814  65.191  1.00  0.00    -0.324 A  
HETATM   16  C   UNL     1     -10.311  11.916  64.067  1.00  0.00    -0.403 A  
BRANCH   8  17
HETATM   17  C   UNL     1      -9.786   7.721  68.220  1.00  0.00    -0.185 A  
HETATM   18  C   UNL     1      -8.366   6.278  69.577  1.00  0.00    -0.118 A  
HETATM   19  C   UNL     1      -9.471   5.508  69.957  1.00  0.00    -0.205 A  
HETATM   20  C   UNL     1     -10.720   5.810  69.412  1.00  0.00    -0.397 A  
HETATM   21  C   UNL     1     -10.868   6.894  68.541  1.00  0.00    -0.234 A  
HETATM   22  C   UNL     1      -8.524   7.374  68.719  1.00  0.00    -0.129 A  
HETATM   23  C   UNL     1      -9.307   4.368  70.918  1.00  0.00    -0.218 C  
ENDBRANCH   8  17
ENDBRANCH   6   7
ENDBRANCH   3   6
TORSDOF 3
ENDMDL
MODEL       46
REMARK 921   NORMALIZED FREE ENERGY PREDICTED BY IDOCK:   -5.49 KCAL/MOL
REMARK 922        TOTAL FREE ENERGY PREDICTED BY IDOCK:   -7.29 KCAL/MOL
REMARK 923 INTER-LIGAND FREE ENERGY PREDICTED BY IDOCK:   -6.66 KCAL/MOL
REMARK 924 INTRA-LIGAND FREE ENERGY PREDICTED BY IDOCK:   -0.63 KCAL/MOL
REMARK 927      BINDING AFFINITY PREDICTED BY RF-SCORE:    0.00 PKD
ROOT
HETATM    1  C   UNL     1     -12.293  12.727  63.276  1.00  0.00    -0.341 C  
HETATM    2  N   UNL     1     -11.125  12.182  63.945  1.00  0.00    -0.365 N  
HETATM    3  C   UNL     1     -11.274  11.872  65.300  1.00  0.00    -0.295 C  
HETATM    4  C   UNL     1     -10.083  11.597  63.118  1.00  0.00    -0.376 C  
HETATM    5  O   UNL     1     -12.322  12.117  65.898  1.00  0.00    -0.561 OA 
ENDROOT
BRANCH   3   6
HETATM    6  C   UNL     1     -10.064  11.241  65.992  1.00  0.00    -0.283 C  
BRANCH   6   7
HETATM    7  C   UNL     1     -10.348  10.945  67.430  1.00  0.00    -0.211 A  
HETATM    8  C   UNL     1     -10.513  11.763  68.543  1.00  0.00    -0.215 A  
HETATM    9  N   UNL     1     -10.618  11.002  69.689  1.00  0.00    -0.147 NA 
HETATM   10  N   UNL     1     -10.496   9.655  67.911  1.00  0.00    -0.231 NA 
HETATM   11  C   UNL     1     -10.610   9.751  69.292  1.00  0.00    -0.221 A  
HETATM   12  C   UNL     1     -10.519   8.434  67.228  1.00  0.00    -0.303 A  
HETATM   13  C   UNL     1     -10.693   5.948  67.244  1.00  0.00    -0.380 C  
HETATM   14  C   UNL     1     -10.704   8.536  70.025  1.00  0.00    -0.234 A  
HETATM   15  C   UNL     1     -10.635   7.282  67.917  1.00  0.00    -0.266 A  
HETATM   16  C   UNL     1     -10.713   7.353  69.376  1.00  0.00    -0.220 A  
BRANCH   8  17
HETATM   17  C   UNL     1     -10.505  13.221  68.577  1.00  0.00    -0.259 A  
HETATM   18  C   UNL     1      -9.249  15.308  68.483  1.00  0.00    -0.200 A  
HETATM   19  C   UNL     1     -10.434  16.051  68.517  1.00  0.00    -0.258 A  
HETATM   20  C   UNL     1     -11.648  15.374  68.648  1.00  0.00    -0.373 A  
HETATM   21  C   UNL     1     -11.677  13.976  68.695  1.00  0.00    -0.389 A  
HETATM   22  C   UNL     1      -9.285  13.908  68.510  1.00  0.00    -0.154 A  
HETATM   23  C   UNL     1     -10.394  17.548  68.432  1.00  0.00    -0.378 C  
ENDBRANCH   8  17
ENDBRANCH   6   7
ENDBRANCH   3   6
TORSDOF 3
ENDMDL
MODEL       47
REMARK 921   NORMALIZED FREE ENERGY PREDICTED BY IDOCK:   -5.45 KCAL/MOL
REMARK 922        TOTAL FREE ENERGY PREDICTED BY IDOCK:   -7.25 KCAL/MOL
REMARK 923 INTER-LIGAND FREE ENERGY PREDICTED BY IDOCK:   -6.32 KCAL/MOL
REMARK 924 INTRA-LIGAND FREE ENERGY PREDICTED BY IDOCK:   -0.93 KCAL/MOL
REMARK 927      BINDING AFFINITY PREDICTED BY RF-SCORE:    0.00 PKD
ROOT
HETATM    1  C   UNL     1     -13.901   8.708  72.225  1.00  0.00    -0.403 C  
HETATM    2  N   UNL     1     -12.547   8.926  71.746  1.00  0.00    -0.338 N  
HETATM    3  C   UNL     1     -12.350  10.041  70.928  1.00  0.00    -0.341 C  
HETATM    4  C   UNL     1     -11.462   8.285  72.471  1.00  0.00    -0.384 C  
HETATM    5  O   UNL     1     -13.294  10.752  70.583  1.00  0.00    -0.116 OA 
ENDROOT
BRANCH   3   6
HETATM    6  C   UNL     1     -10.915  10.308  70.471  1.00  0.00    -0.343 C  
BRANCH   6   7
HETATM    7  C   UNL     1     -10.707   9.900  69.049  1.00  0.00    -0.222 A  
HETATM    8  C   UNL     1     -10.247   8.723  68.466  1.00  0.00    -0.195 A  
HETATM    9  N   UNL     1     -10.098   8.886  67.104  1.00  0.00    -0.226 NA 
HETATM   10  N   UNL     1     -10.971  10.745  67.984  1.00  0.00    -0.259 NA 
HETATM   11  C   UNL     1     -10.538  10.093  66.836  1.00  0.00    -0.200 A  
HETATM   12  C   UNL     1     -11.536  12.024  67.965  1.00  0.00    -0.342 A  
HETATM   13  C   UNL     1     -12.282  14.044  66.709  1.00  0.00    -0.439 C  
HETATM   14  C   UNL     1     -10.641  10.800  65.606  1.00  0.00    -0.199 A  
HETATM   15  C   UNL     1     -11.661  12.686  66.798  1.00  0.00    -0.438 A  
HETATM   16  C   UNL     1     -11.173  12.040  65.580  1.00  0.00    -0.377 A  
BRANCH   8  17
HETATM   17  C   UNL     1      -9.878   7.486  69.145  1.00  0.00    -0.170 A  
HETATM   18  C   UNL     1     -10.481   5.241  69.878  1.00  0.00    -0.351 A  
HETATM   19  C   UNL     1      -9.181   5.019  70.346  1.00  0.00    -0.198 A  
HETATM   20  C   UNL     1      -8.253   6.058  70.271  1.00  0.00    -0.119 A  
HETATM   21  C   UNL     1      -8.606   7.282  69.692  1.00  0.00    -0.137 A  
HETATM   22  C   UNL     1     -10.823   6.462  69.281  1.00  0.00    -0.387 A  
HETATM   23  C   UNL     1      -8.804   3.692  70.933  1.00  0.00    -0.138 C  
ENDBRANCH   8  17
ENDBRANCH   6   7
ENDBRANCH   3   6
TORSDOF 3
ENDMDL
MODEL       48
REMARK 921   NORMALIZED FREE ENERGY PREDICTED BY IDOCK:   -5.44 KCAL/MOL
REMARK 922        TOTAL FREE ENERGY PREDICTED BY IDOCK:   -7.24 KCAL/MOL
REMARK 923 INTER-LIGAND FREE ENERGY PREDICTED BY IDOCK:   -6.52 KCAL/MOL
REMARK 924 INTRA-LIGAND FREE ENERGY PREDICTED BY IDOCK:   -0.72 KCAL/MOL
REMARK 927      BINDING AFFINITY PREDICTED BY RF-SCORE:    0.00 PKD
ROOT
HETATM    1  C   UNL     1      -8.737   6.818  67.369  1.00  0.00    -0.119 C  
HETATM    2  N   UNL     1      -8.546   7.996  68.196  1.00  0.00    -0.126 N  
HETATM    3  C   UNL     1      -9.484   9.021  68.043  1.00  0.00    -0.142 C  
HETATM    4  C   UNL     1      -7.721   7.860  69.385  1.00  0.00    -0.105 C  
HETATM    5  O   UNL     1     -10.377   8.945  67.200  1.00  0.00    -0.249 OA 
ENDROOT
BRANCH   3   6
HETATM    6  C   UNL     1      -9.320  10.237  68.956  1.00  0.00    -0.195 C  
BRANCH   6   7
HETATM    7  C   UNL     1     -10.627  10.662  69.543  1.00  0.00    -0.230 A  
HETATM    8  C   UNL     1     -11.448  11.762  69.312  1.00  0.00    -0.306 A  
HETATM    9  N   UNL     1     -12.491  11.783  70.215  1.00  0.00    -0.205 NA 
HETATM   10  N   UNL     1     -11.278   9.933  70.523  1.00  0.00    -0.305 NA 
HETATM   11  C   UNL     1     -12.375  10.684  70.924  1.00  0.00    -0.401 A  
HETATM   12  C   UNL     1     -10.963   8.689  71.082  1.00  0.00    -0.260 A  
HETATM   13  C   UNL     1     -11.461   6.848  72.686  1.00  0.00    -0.235 C  
HETATM   14  C   UNL     1     -13.170  10.167  71.984  1.00  0.00    -0.534 A  
HETATM   15  C   UNL     1     -11.729   8.183  72.068  1.00  0.00    -0.389 A  
HETATM   16  C   UNL     1     -12.865   8.975  72.538  1.00  0.00    -0.408 A  
BRANCH   8  17
HETATM   17  C   UNL     1     -11.249  12.822  68.331  1.00  0.00    -0.313 A  
HETATM   18  C   UNL     1     -10.187  14.928  67.712  1.00  0.00    -0.236 A  
HETATM   19  C   UNL     1     -10.728  14.850  66.424  1.00  0.00    -0.316 A  
HETATM   20  C   UNL     1     -11.582  13.789  66.117  1.00  0.00    -0.369 A  
HETATM   21  C   UNL     1     -11.850  12.799  67.067  1.00  0.00    -0.428 A  
HETATM   22  C   UNL     1     -10.444  13.922  68.654  1.00  0.00    -0.249 A  
HETATM   23  C   UNL     1     -10.407  15.899  65.401  1.00  0.00    -0.399 C  
ENDBRANCH   8  17
ENDBRANCH   6   7
ENDBRANCH   3   6
TORSDOF 3
ENDMDL
MODEL       49
REMARK 921   NORMALIZED FREE ENERGY PREDICTED BY IDOCK:   -5.43 KCAL/MOL
REMARK 922        TOTAL FREE ENERGY PREDICTED BY IDOCK:   -7.22 KCAL/MOL
REMARK 923 INTER-LIGAND FREE ENERGY PREDICTED BY IDOCK:   -6.55 KCAL/MOL
REMARK 924 INTRA-LIGAND FREE ENERGY PREDICTED BY IDOCK:   -0.67 KCAL/MOL
REMARK 927      BINDING AFFINITY PREDICTED BY RF-SCORE:    0.00 PKD
ROOT
HETATM    1  C   UNL     1     -14.036  15.304  71.877  1.00  0.00    -0.542 C  
HETATM    2  N   UNL     1     -12.597  15.439  71.726  1.00  0.00    -0.352 N  
HETATM    3  C   UNL     1     -12.065  15.067  70.488  1.00  0.00    -0.326 C  
HETATM    4  C   UNL     1     -11.902  16.328  72.642  1.00  0.00    -0.497 C  
HETATM    5  O   UNL     1     -12.778  14.587  69.607  1.00  0.00    -0.165 OA 
ENDROOT
BRANCH   3   6
HETATM    6  C   UNL     1     -10.560  15.266  70.306  1.00  0.00    -0.257 C  
BRANCH   6   7
HETATM    7  C   UNL     1     -10.184  15.317  68.860  1.00  0.00    -0.232 A  
HETATM    8  C   UNL     1      -9.962  14.324  67.911  1.00  0.00    -0.230 A  
HETATM    9  N   UNL     1      -9.495  14.877  66.736  1.00  0.00    -0.239 NA 
HETATM   10  N   UNL     1      -9.974  16.508  68.185  1.00  0.00    -0.242 NA 
HETATM   11  C   UNL     1      -9.513  16.177  66.917  1.00  0.00    -0.230 A  
HETATM   12  C   UNL     1     -10.142  17.830  68.612  1.00  0.00    -0.384 A  
HETATM   13  C   UNL     1     -10.014  20.280  68.173  1.00  0.00    -0.421 C  
HETATM   14  C   UNL     1      -9.157  17.247  66.052  1.00  0.00    -0.114 A  
HETATM   15  C   UNL     1      -9.831  18.847  67.785  1.00  0.00    -0.389 A  
HETATM   16  C   UNL     1      -9.302  18.525  66.460  1.00  0.00    -0.313 A  
BRANCH   8  17
HETATM   17  C   UNL     1     -10.103  12.884  68.089  1.00  0.00    -0.240 A  
HETATM   18  C   UNL     1     -11.484  10.881  67.930  1.00  0.00    -0.344 A  
HETATM   19  C   UNL     1     -10.401  10.076  68.301  1.00  0.00    -0.224 A  
HETATM   20  C   UNL     1      -9.190  10.688  68.630  1.00  0.00    -0.181 A  
HETATM   21  C   UNL     1      -9.052  12.077  68.541  1.00  0.00    -0.107 A  
HETATM   22  C   UNL     1     -11.334  12.270  67.822  1.00  0.00    -0.362 A  
HETATM   23  C   UNL     1     -10.550   8.585  68.362  1.00  0.00    -0.161 C  
ENDBRANCH   8  17
ENDBRANCH   6   7
ENDBRANCH   3   6
TORSDOF 3
ENDMDL
MODEL       50
REMARK 921   NORMALIZED FREE ENERGY PREDICTED BY IDOCK:   -5.43 KCAL/MOL
REMARK 922        TOTAL FREE ENERGY PREDICTED BY IDOCK:   -7.22 KCAL/MOL
REMARK 923 INTER-LIGAND FREE ENERGY PREDICTED BY IDOCK:   -6.37 KCAL/MOL
REMARK 924 INTRA-LIGAND FREE ENERGY PREDICTED BY IDOCK:   -0.86 KCAL/MOL
REMARK 927      BINDING AFFINITY PREDICTED BY RF-SCORE:    0.00 PKD
ROOT
HETATM    1  C   UNL     1      -7.598   9.668  66.526  1.00  0.00    -0.098 C  
HETATM    2  N   UNL     1      -9.044   9.725  66.647  1.00  0.00    -0.145 N  
HETATM    3  C   UNL     1      -9.558   9.742  67.947  1.00  0.00    -0.138 C  
HETATM    4  C   UNL     1      -9.801  10.198  65.500  1.00  0.00    -0.298 C  
HETATM    5  O   UNL     1      -8.817   9.643  68.925  1.00  0.00    -0.128 OA 
ENDROOT
BRANCH   3   6
HETATM    6  C   UNL     1     -11.077   9.862  68.078  1.00  0.00    -0.220 C  
BRANCH   6   7
HETATM    7  C   UNL     1     -11.460  10.743  69.223  1.00  0.00    -0.298 A  
HETATM    8  C   UNL     1     -11.742  10.479  70.560  1.00  0.00    -0.350 A  
HETATM    9  N   UNL     1     -12.189  11.620  71.193  1.00  0.00    -0.238 NA 
HETATM   10  N   UNL     1     -11.613  12.113  69.092  1.00  0.00    -0.296 NA 
HETATM   11  C   UNL     1     -12.100  12.582  70.304  1.00  0.00    -0.294 A  
HETATM   12  C   UNL     1     -11.372  12.948  67.994  1.00  0.00    -0.292 A  
HETATM   13  C   UNL     1     -11.374  15.214  66.956  1.00  0.00    -0.277 C  
HETATM   14  C   UNL     1     -12.406  13.969  70.393  1.00  0.00    -0.429 A  
HETATM   15  C   UNL     1     -11.635  14.266  68.084  1.00  0.00    -0.365 A  
HETATM   16  C   UNL     1     -12.191  14.778  69.336  1.00  0.00    -0.251 A  
BRANCH   8  17
HETATM   17  C   UNL     1     -11.675   9.189  71.238  1.00  0.00    -0.396 A  
HETATM   18  C   UNL     1     -12.685   7.023  71.715  1.00  0.00    -0.378 A  
HETATM   19  C   UNL     1     -11.551   6.625  72.431  1.00  0.00    -0.281 A  
HETATM   20  C   UNL     1     -10.509   7.539  72.603  1.00  0.00    -0.322 A  
HETATM   21  C   UNL     1     -10.583   8.811  72.026  1.00  0.00    -0.414 A  
HETATM   22  C   UNL     1     -12.744   8.291  71.123  1.00  0.00    -0.118 A  
HETATM   23  C   UNL     1     -11.468   5.247  73.017  1.00  0.00    -0.340 C  
ENDBRANCH   8  17
ENDBRANCH   6   7
ENDBRANCH   3   6
TORSDOF 3
ENDMDL
MODEL       51
REMARK 921   NORMALIZED FREE ENERGY PREDICTED BY IDOCK:   -5.40 KCAL/MOL
REMARK 922        TOTAL FREE ENERGY PREDICTED BY IDOCK:   -7.19 KCAL/MOL
REMARK 923 INTER-LIGAND FREE ENERGY PREDICTED BY IDOCK:   -6.82 KCAL/MOL
REMARK 924 INTRA-LIGAND FREE ENERGY PREDICTED BY IDOCK:   -0.37 KCAL/MOL
REMARK 927      BINDING AFFINITY PREDICTED BY RF-SCORE:    0.00 PKD
ROOT
HETATM    1  C   UNL     1      -9.732  10.345  64.754  1.00  0.00    -0.320 C  
HETATM    2  N   UNL     1      -9.232  10.802  66.039  1.00  0.00    -0.180 N  
HETATM    3  C   UNL     1      -9.870  11.916  66.593  1.00  0.00    -0.201 C  
HETATM    4  C   UNL     1      -8.463   9.862  66.838  1.00  0.00    -0.125 C  
HETATM    5  O   UNL     1     -10.758  12.510  65.982  1.00  0.00    -0.254 OA 
ENDROOT
BRANCH   3   6
HETATM    6  C   UNL     1      -9.386  12.362  67.973  1.00  0.00    -0.204 C  
BRANCH   6   7
HETATM    7  C   UNL     1     -10.226  13.473  68.516  1.00  0.00    -0.229 A  
HETATM    8  C   UNL     1     -11.287  13.497  69.415  1.00  0.00    -0.233 A  
HETATM    9  N   UNL     1     -11.829  14.764  69.488  1.00  0.00    -0.309 NA 
HETATM   10  N   UNL     1     -10.043  14.796  68.147  1.00  0.00    -0.218 NA 
HETATM   11  C   UNL     1     -11.072  15.523  68.730  1.00  0.00    -0.291 A  
HETATM   12  C   UNL     1      -9.063  15.380  67.337  1.00  0.00    -0.197 A  
HETATM   13  C   UNL     1      -8.074  17.389  66.242  1.00  0.00    -0.298 C  
HETATM   14  C   UNL     1     -11.138  16.913  68.436  1.00  0.00    -0.216 A  
HETATM   15  C   UNL     1      -9.107  16.701  67.078  1.00  0.00    -0.232 A  
HETATM   16  C   UNL     1     -10.206  17.482  67.644  1.00  0.00    -0.343 A  
BRANCH   8  17
HETATM   17  C   UNL     1     -11.851  12.368  70.146  1.00  0.00    -0.341 A  
HETATM   18  C   UNL     1     -13.277  11.540  71.941  1.00  0.00    -0.479 A  
HETATM   19  C   UNL     1     -13.071  10.219  71.528  1.00  0.00    -0.534 A  
HETATM   20  C   UNL     1     -12.200   9.975  70.465  1.00  0.00    -0.308 A  
HETATM   21  C   UNL     1     -11.586  11.039  69.795  1.00  0.00    -0.401 A  
HETATM   22  C   UNL     1     -12.675  12.602  71.254  1.00  0.00    -0.354 A  
HETATM   23  C   UNL     1     -13.760   9.088  72.231  1.00  0.00    -0.550 C  
ENDBRANCH   8  17
ENDBRANCH   6   7
ENDBRANCH   3   6
TORSDOF 3
ENDMDL
MODEL       52
REMARK 921   NORMALIZED FREE ENERGY PREDICTED BY IDOCK:   -5.40 KCAL/MOL
REMARK 922        TOTAL FREE ENERGY PREDICTED BY IDOCK:   -7.19 KCAL/MOL
REMARK 923 INTER-LIGAND FREE ENERGY PREDICTED BY IDOCK:   -6.36 KCAL/MOL
REMARK 924 INTRA-LIGAND FREE ENERGY PREDICTED BY IDOCK:   -0.83 KCAL/MOL
REMARK 927      BINDING AFFINITY PREDICTED BY RF-SCORE:    0.00 PKD
ROOT
HETATM    1  C   UNL     1     -12.170   9.219  71.289  1.00  0.00    -0.334 C  
HETATM    2  N   UNL     1     -10.951   9.445  70.533  1.00  0.00    -0.253 N  
HETATM    3  C   UNL     1     -11.023  10.393  69.509  1.00  0.00    -0.262 C  
HETATM    4  C   UNL     1      -9.694   9.045  71.143  1.00  0.00    -0.299 C  
HETATM    5  O   UNL     1     -12.085  10.948  69.227  1.00  0.00    -0.332 OA 
ENDROOT
BRANCH   3   6
HETATM    6  C   UNL     1      -9.725  10.678  68.751  1.00  0.00    -0.193 C  
BRANCH   6   7
HETATM    7  C   UNL     1      -9.946  10.700  67.273  1.00  0.00    -0.188 A  
HETATM    8  C   UNL     1      -9.976   9.694  66.312  1.00  0.00    -0.264 A  
HETATM    9  N   UNL     1     -10.075  10.239  65.048  1.00  0.00    -0.323 NA 
HETATM   10  N   UNL     1     -10.173  11.871  66.570  1.00  0.00    -0.200 NA 
HETATM   11  C   UNL     1     -10.197  11.534  65.223  1.00  0.00    -0.267 A  
HETATM   12  C   UNL     1     -10.339  13.183  67.029  1.00  0.00    -0.249 A  
HETATM   13  C   UNL     1     -10.720  15.603  66.574  1.00  0.00    -0.293 C  
HETATM   14  C   UNL     1     -10.349  12.594  64.287  1.00  0.00    -0.399 A  
HETATM   15  C   UNL     1     -10.510  14.186  66.146  1.00  0.00    -0.297 A  
HETATM   16  C   UNL     1     -10.495  13.863  64.719  1.00  0.00    -0.451 A  
BRANCH   8  17
HETATM   17  C   UNL     1      -9.843   8.258  66.532  1.00  0.00    -0.323 A  
HETATM   18  C   UNL     1     -10.796   6.171  67.352  1.00  0.00    -0.431 A  
HETATM   19  C   UNL     1      -9.694   5.452  66.876  1.00  0.00    -0.166 A  
HETATM   20  C   UNL     1      -8.638   6.152  66.289  1.00  0.00    -0.136 A  
HETATM   21  C   UNL     1      -8.708   7.541  66.136  1.00  0.00    -0.174 A  
HETATM   22  C   UNL     1     -10.870   7.559  67.178  1.00  0.00    -0.298 A  
HETATM   23  C   UNL     1      -9.643   3.960  67.015  1.00  0.00    -0.227 C  
ENDBRANCH   8  17
ENDBRANCH   6   7
ENDBRANCH   3   6
TORSDOF 3
ENDMDL
MODEL       53
REMARK 921   NORMALIZED FREE ENERGY PREDICTED BY IDOCK:   -5.40 KCAL/MOL
REMARK 922        TOTAL FREE ENERGY PREDICTED BY IDOCK:   -7.19 KCAL/MOL
REMARK 923 INTER-LIGAND FREE ENERGY PREDICTED BY IDOCK:   -6.43 KCAL/MOL
REMARK 924 INTRA-LIGAND FREE ENERGY PREDICTED BY IDOCK:   -0.76 KCAL/MOL
REMARK 927      BINDING AFFINITY PREDICTED BY RF-SCORE:    0.00 PKD
ROOT
HETATM    1  C   UNL     1     -12.418  13.099  71.024  1.00  0.00    -0.318 C  
HETATM    2  N   UNL     1     -12.133  14.059  69.972  1.00  0.00    -0.329 N  
HETATM    3  C   UNL     1     -12.123  13.564  68.665  1.00  0.00    -0.268 C  
HETATM    4  C   UNL     1     -12.321  15.469  70.275  1.00  0.00    -0.396 C  
HETATM    5  O   UNL     1     -12.281  12.365  68.438  1.00  0.00    -0.231 OA 
ENDROOT
BRANCH   3   6
HETATM    6  C   UNL     1     -11.883  14.585  67.551  1.00  0.00    -0.404 C  
BRANCH   6   7
HETATM    7  C   UNL     1     -10.426  14.856  67.361  1.00  0.00    -0.255 A  
HETATM    8  C   UNL     1      -9.345  14.028  67.071  1.00  0.00    -0.250 A  
HETATM    9  N   UNL     1      -8.164  14.738  67.137  1.00  0.00    -0.212 NA 
HETATM   10  N   UNL     1      -9.883  16.126  67.467  1.00  0.00    -0.235 NA 
HETATM   11  C   UNL     1      -8.505  15.984  67.368  1.00  0.00    -0.168 A  
HETATM   12  C   UNL     1     -10.509  17.363  67.656  1.00  0.00    -0.368 A  
HETATM   13  C   UNL     1     -10.377  19.834  67.948  1.00  0.00    -0.569 C  
HETATM   14  C   UNL     1      -7.716  17.157  67.519  1.00  0.00    -0.190 A  
HETATM   15  C   UNL     1      -9.766  18.480  67.772  1.00  0.00    -0.327 A  
HETATM   16  C   UNL     1      -8.310  18.352  67.716  1.00  0.00    -0.273 A  
BRANCH   8  17
HETATM   17  C   UNL     1      -9.377  12.594  66.809  1.00  0.00    -0.232 A  
HETATM   18  C   UNL     1      -8.904  10.321  67.552  1.00  0.00    -0.128 A  
HETATM   19  C   UNL     1      -9.519   9.795  66.411  1.00  0.00    -0.237 A  
HETATM   20  C   UNL     1     -10.001  10.675  65.440  1.00  0.00    -0.343 A  
HETATM   21  C   UNL     1      -9.914  12.057  65.633  1.00  0.00    -0.270 A  
HETATM   22  C   UNL     1      -8.837  11.707  67.749  1.00  0.00    -0.159 A  
HETATM   23  C   UNL     1      -9.638   8.311  66.229  1.00  0.00    -0.266 C  
ENDBRANCH   8  17
ENDBRANCH   6   7
ENDBRANCH   3   6
TORSDOF 3
ENDMDL
MODEL       54
REMARK 921   NORMALIZED FREE ENERGY PREDICTED BY IDOCK:   -5.39 KCAL/MOL
REMARK 922        TOTAL FREE ENERGY PREDICTED BY IDOCK:   -7.18 KCAL/MOL
REMARK 923 INTER-LIGAND FREE ENERGY PREDICTED BY IDOCK:   -6.38 KCAL/MOL
REMARK 924 INTRA-LIGAND FREE ENERGY PREDICTED BY IDOCK:   -0.80 KCAL/MOL
REMARK 927      BINDING AFFINITY PREDICTED BY RF-SCORE:    0.00 PKD
ROOT
HETATM    1  C   UNL     1      -9.609   6.104  74.325  1.00  0.00    -0.207 C  
HETATM    2  N   UNL     1     -10.753   6.311  73.455  1.00  0.00    -0.265 N  
HETATM    3  C   UNL     1     -10.856   7.570  72.856  1.00  0.00    -0.373 C  
HETATM    4  C   UNL     1     -11.422   5.135  72.925  1.00  0.00    -0.254 C  
HETATM    5  O   UNL     1     -10.053   8.467  73.116  1.00  0.00    -0.155 OA 
ENDROOT
BRANCH   3   6
HETATM    6  C   UNL     1     -12.026   7.773  71.892  1.00  0.00    -0.340 C  
BRANCH   6   7
HETATM    7  C   UNL     1     -11.641   8.641  70.737  1.00  0.00    -0.242 A  
HETATM    8  C   UNL     1     -10.971   8.379  69.547  1.00  0.00    -0.040 A  
HETATM    9  N   UNL     1     -10.731   9.552  68.861  1.00  0.00    -0.217 NA 
HETATM   10  N   UNL     1     -11.931   9.994  70.692  1.00  0.00    -0.300 NA 
HETATM   11  C   UNL     1     -11.314  10.501  69.556  1.00  0.00    -0.278 A  
HETATM   12  C   UNL     1     -12.669  10.790  71.576  1.00  0.00    -0.431 A  
HETATM   13  C   UNL     1     -13.585  13.010  72.240  1.00  0.00    -0.643 C  
HETATM   14  C   UNL     1     -11.411  11.901  69.329  1.00  0.00    -0.366 A  
HETATM   15  C   UNL     1     -12.787  12.113  71.349  1.00  0.00    -0.378 A  
HETATM   16  C   UNL     1     -12.109  12.678  70.183  1.00  0.00    -0.368 A  
BRANCH   8  17
HETATM   17  C   UNL     1     -10.488   7.088  69.070  1.00  0.00    -0.219 A  
HETATM   18  C   UNL     1     -10.484   5.362  67.349  1.00  0.00    -0.253 A  
HETATM   19  C   UNL     1      -9.497   4.646  68.036  1.00  0.00    -0.191 A  
HETATM   20  C   UNL     1      -9.059   5.122  69.272  1.00  0.00    -0.140 A  
HETATM   21  C   UNL     1      -9.563   6.321  69.788  1.00  0.00    -0.169 A  
HETATM   22  C   UNL     1     -10.971   6.572  67.861  1.00  0.00    -0.382 A  
HETATM   23  C   UNL     1      -8.938   3.380  67.458  1.00  0.00    -0.173 C  
ENDBRANCH   8  17
ENDBRANCH   6   7
ENDBRANCH   3   6
TORSDOF 3
ENDMDL
MODEL       55
REMARK 921   NORMALIZED FREE ENERGY PREDICTED BY IDOCK:   -5.36 KCAL/MOL
REMARK 922        TOTAL FREE ENERGY PREDICTED BY IDOCK:   -7.14 KCAL/MOL
REMARK 923 INTER-LIGAND FREE ENERGY PREDICTED BY IDOCK:   -6.45 KCAL/MOL
REMARK 924 INTRA-LIGAND FREE ENERGY PREDICTED BY IDOCK:   -0.69 KCAL/MOL
REMARK 927      BINDING AFFINITY PREDICTED BY RF-SCORE:    0.00 PKD
ROOT
HETATM    1  C   UNL     1     -12.928  13.522  72.448  1.00  0.00    -0.296 C  
HETATM    2  N   UNL     1     -12.565  13.006  71.140  1.00  0.00    -0.353 N  
HETATM    3  C   UNL     1     -12.706  11.628  70.955  1.00  0.00    -0.298 C  
HETATM    4  C   UNL     1     -12.525  13.944  70.030  1.00  0.00    -0.266 C  
HETATM    5  O   UNL     1     -13.052  10.894  71.881  1.00  0.00    -0.482 OA 
ENDROOT
BRANCH   3   6
HETATM    6  C   UNL     1     -12.383  11.089  69.561  1.00  0.00    -0.266 C  
BRANCH   6   7
HETATM    7  C   UNL     1     -10.929  10.780  69.415  1.00  0.00    -0.254 A  
HETATM    8  C   UNL     1     -10.131   9.755  69.915  1.00  0.00    -0.251 A  
HETATM    9  N   UNL     1      -8.804   9.987  69.614  1.00  0.00    -0.205 NA 
HETATM   10  N   UNL     1     -10.067  11.573  68.676  1.00  0.00    -0.214 NA 
HETATM   11  C   UNL     1      -8.787  11.070  68.873  1.00  0.00    -0.113 A  
HETATM   12  C   UNL     1     -10.330  12.692  67.877  1.00  0.00    -0.218 A  
HETATM   13  C   UNL     1      -9.534  14.524  66.388  1.00  0.00    -0.316 C  
HETATM   14  C   UNL     1      -7.710  11.770  68.263  1.00  0.00    -0.130 A  
HETATM   15  C   UNL     1      -9.314  13.341  67.276  1.00  0.00    -0.226 A  
HETATM   16  C   UNL     1      -7.953  12.857  67.502  1.00  0.00    -0.178 A  
BRANCH   8  17
HETATM   17  C   UNL     1     -10.558   8.615  70.719  1.00  0.00    -0.254 A  
HETATM   18  C   UNL     1     -11.430   6.342  70.828  1.00  0.00    -0.415 A  
HETATM   19  C   UNL     1     -11.287   6.329  72.220  1.00  0.00    -0.337 A  
HETATM   20  C   UNL     1     -10.842   7.486  72.861  1.00  0.00    -0.425 A  
HETATM   21  C   UNL     1     -10.498   8.619  72.117  1.00  0.00    -0.411 A  
HETATM   22  C   UNL     1     -11.066   7.473  70.086  1.00  0.00    -0.246 A  
HETATM   23  C   UNL     1     -11.625   5.097  73.005  1.00  0.00    -0.301 C  
ENDBRANCH   8  17
ENDBRANCH   6   7
ENDBRANCH   3   6
TORSDOF 3
ENDMDL
MODEL       56
REMARK 921   NORMALIZED FREE ENERGY PREDICTED BY IDOCK:   -5.36 KCAL/MOL
REMARK 922        TOTAL FREE ENERGY PREDICTED BY IDOCK:   -7.14 KCAL/MOL
REMARK 923 INTER-LIGAND FREE ENERGY PREDICTED BY IDOCK:   -6.42 KCAL/MOL
REMARK 924 INTRA-LIGAND FREE ENERGY PREDICTED BY IDOCK:   -0.72 KCAL/MOL
REMARK 927      BINDING AFFINITY PREDICTED BY RF-SCORE:    0.00 PKD
ROOT
HETATM    1  C   UNL     1     -11.874  16.119  72.382  1.00  0.00    -0.538 C  
HETATM    2  N   UNL     1     -11.841  15.439  71.098  1.00  0.00    -0.333 N  
HETATM    3  C   UNL     1     -12.636  14.295  70.982  1.00  0.00    -0.358 C  
HETATM    4  C   UNL     1     -11.382  16.194  69.945  1.00  0.00    -0.317 C  
HETATM    5  O   UNL     1     -13.269  13.859  71.944  1.00  0.00    -0.346 OA 
ENDROOT
BRANCH   3   6
HETATM    6  C   UNL     1     -12.651  13.612  69.614  1.00  0.00     0.014 C  
BRANCH   6   7
HETATM    7  C   UNL     1     -11.607  12.546  69.522  1.00  0.00    -0.281 A  
HETATM    8  C   UNL     1     -10.353  12.507  68.920  1.00  0.00    -0.038 A  
HETATM    9  N   UNL     1      -9.825  11.235  68.990  1.00  0.00    -0.139 NA 
HETATM   10  N   UNL     1     -11.769  11.292  70.088  1.00  0.00    -0.333 NA 
HETATM   11  C   UNL     1     -10.678  10.528  69.693  1.00  0.00    -0.259 A  
HETATM   12  C   UNL     1     -12.797  10.791  70.894  1.00  0.00    -0.351 A  
HETATM   13  C   UNL     1     -13.818   8.922  72.187  1.00  0.00    -0.531 C  
HETATM   14  C   UNL     1     -10.655   9.165  70.098  1.00  0.00    -0.258 A  
HETATM   15  C   UNL     1     -12.764   9.508  71.303  1.00  0.00    -0.416 A  
HETATM   16  C   UNL     1     -11.649   8.670  70.864  1.00  0.00    -0.307 A  
BRANCH   8  17
HETATM   17  C   UNL     1      -9.674  13.594  68.224  1.00  0.00    -0.231 A  
HETATM   18  C   UNL     1      -9.592  15.151  66.350  1.00  0.00    -0.309 A  
HETATM   19  C   UNL     1      -8.466  15.781  66.892  1.00  0.00    -0.281 A  
HETATM   20  C   UNL     1      -7.910  15.270  68.066  1.00  0.00    -0.137 A  
HETATM   21  C   UNL     1      -8.499  14.179  68.712  1.00  0.00    -0.069 A  
HETATM   22  C   UNL     1     -10.190  14.070  67.012  1.00  0.00    -0.261 A  
HETATM   23  C   UNL     1      -7.862  16.972  66.210  1.00  0.00    -0.346 C  
ENDBRANCH   8  17
ENDBRANCH   6   7
ENDBRANCH   3   6
TORSDOF 3
ENDMDL
MODEL       57
REMARK 921   NORMALIZED FREE ENERGY PREDICTED BY IDOCK:   -5.34 KCAL/MOL
REMARK 922        TOTAL FREE ENERGY PREDICTED BY IDOCK:   -7.12 KCAL/MOL
REMARK 923 INTER-LIGAND FREE ENERGY PREDICTED BY IDOCK:   -6.81 KCAL/MOL
REMARK 924 INTRA-LIGAND FREE ENERGY PREDICTED BY IDOCK:   -0.31 KCAL/MOL
REMARK 927      BINDING AFFINITY PREDICTED BY RF-SCORE:    0.00 PKD
ROOT
HETATM    1  C   UNL     1     -13.078  13.748  72.434  1.00  0.00    -0.422 C  
HETATM    2  N   UNL     1     -12.732  13.009  71.233  1.00  0.00    -0.348 N  
HETATM    3  C   UNL     1     -12.959  11.630  71.266  1.00  0.00    -0.269 C  
HETATM    4  C   UNL     1     -12.614  13.753  69.990  1.00  0.00    -0.147 C  
HETATM    5  O   UNL     1     -13.365  11.076  72.288  1.00  0.00    -0.390 OA 
ENDROOT
BRANCH   3   6
HETATM    6  C   UNL     1     -12.651  10.857  69.982  1.00  0.00    -0.253 C  
BRANCH   6   7
HETATM    7  C   UNL     1     -11.184  10.621  69.822  1.00  0.00    -0.297 A  
HETATM    8  C   UNL     1     -10.245  11.120  68.925  1.00  0.00    -0.194 A  
HETATM    9  N   UNL     1      -9.032  10.485  69.096  1.00  0.00    -0.176 NA 
HETATM   10  N   UNL     1     -10.472   9.763  70.642  1.00  0.00    -0.302 NA 
HETATM   11  C   UNL     1      -9.185   9.686  70.125  1.00  0.00    -0.246 A  
HETATM   12  C   UNL     1     -10.880   9.051  71.776  1.00  0.00    -0.367 A  
HETATM   13  C   UNL     1     -10.380   7.466  73.633  1.00  0.00    -0.367 C  
HETATM   14  C   UNL     1      -8.276   8.799  70.765  1.00  0.00    -0.178 A  
HETATM   15  C   UNL     1     -10.013   8.231  72.402  1.00  0.00    -0.379 A  
HETATM   16  C   UNL     1      -8.665   8.098  71.850  1.00  0.00    -0.206 A  
BRANCH   8  17
HETATM   17  C   UNL     1     -10.463  12.109  67.875  1.00  0.00    -0.224 A  
HETATM   18  C   UNL     1     -11.680  12.812  65.884  1.00  0.00    -0.464 A  
HETATM   19  C   UNL     1     -11.016  14.044  65.884  1.00  0.00    -0.286 A  
HETATM   20  C   UNL     1     -10.029  14.275  66.843  1.00  0.00    -0.263 A  
HETATM   21  C   UNL     1      -9.747  13.310  67.815  1.00  0.00    -0.217 A  
HETATM   22  C   UNL     1     -11.407  11.857  66.872  1.00  0.00    -0.392 A  
HETATM   23  C   UNL     1     -11.350  15.085  64.858  1.00  0.00    -0.419 C  
ENDBRANCH   8  17
ENDBRANCH   6   7
ENDBRANCH   3   6
TORSDOF 3
ENDMDL
MODEL       58
REMARK 921   NORMALIZED FREE ENERGY PREDICTED BY IDOCK:   -5.33 KCAL/MOL
REMARK 922        TOTAL FREE ENERGY PREDICTED BY IDOCK:   -7.11 KCAL/MOL
REMARK 923 INTER-LIGAND FREE ENERGY PREDICTED BY IDOCK:   -6.63 KCAL/MOL
REMARK 924 INTRA-LIGAND FREE ENERGY PREDICTED BY IDOCK:   -0.48 KCAL/MOL
REMARK 927      BINDING AFFINITY PREDICTED BY RF-SCORE:    0.00 PKD
ROOT
HETATM    1  C   UNL     1     -10.679  10.059  69.789  1.00  0.00    -0.271 C  
HETATM    2  N   UNL     1      -9.754  10.899  69.048  1.00  0.00    -0.194 N  
HETATM    3  C   UNL     1     -10.215  12.172  68.700  1.00  0.00    -0.174 C  
HETATM    4  C   UNL     1      -8.341  10.568  69.112  1.00  0.00    -0.151 C  
HETATM    5  O   UNL     1     -11.367  12.524  68.953  1.00  0.00    -0.258 OA 
ENDROOT
BRANCH   3   6
HETATM    6  C   UNL     1      -9.222  13.081  67.973  1.00  0.00    -0.212 C  
BRANCH   6   7
HETATM    7  C   UNL     1      -9.666  13.372  66.576  1.00  0.00    -0.282 A  
HETATM    8  C   UNL     1     -10.111  14.534  65.953  1.00  0.00    -0.326 A  
HETATM    9  N   UNL     1     -10.543  14.258  64.672  1.00  0.00    -0.403 NA 
HETATM   10  N   UNL     1      -9.706  12.401  65.589  1.00  0.00    -0.215 NA 
HETATM   11  C   UNL     1     -10.290  12.986  64.472  1.00  0.00    -0.364 A  
HETATM   12  C   UNL     1      -9.287  11.066  65.617  1.00  0.00    -0.214 A  
HETATM   13  C   UNL     1      -9.014   8.859  64.493  1.00  0.00     0.001 C  
HETATM   14  C   UNL     1     -10.504  12.156  63.337  1.00  0.00    -0.450 A  
HETATM   15  C   UNL     1      -9.465  10.285  64.534  1.00  0.00    -0.356 A  
HETATM   16  C   UNL     1     -10.117  10.865  63.361  1.00  0.00    -0.398 A  
BRANCH   8  17
HETATM   17  C   UNL     1     -10.212  15.866  66.538  1.00  0.00    -0.297 A  
HETATM   18  C   UNL     1     -10.851  17.284  68.414  1.00  0.00    -0.273 A  
HETATM   19  C   UNL     1     -10.324  18.411  67.773  1.00  0.00    -0.428 A  
HETATM   20  C   UNL     1      -9.802  18.270  66.486  1.00  0.00    -0.363 A  
HETATM   21  C   UNL     1      -9.764  17.013  65.872  1.00  0.00    -0.170 A  
HETATM   22  C   UNL     1     -10.792  16.025  67.803  1.00  0.00    -0.324 A  
HETATM   23  C   UNL     1     -10.338  19.747  68.454  1.00  0.00    -0.513 C  
ENDBRANCH   8  17
ENDBRANCH   6   7
ENDBRANCH   3   6
TORSDOF 3
ENDMDL
MODEL       59
REMARK 921   NORMALIZED FREE ENERGY PREDICTED BY IDOCK:   -5.30 KCAL/MOL
REMARK 922        TOTAL FREE ENERGY PREDICTED BY IDOCK:   -7.07 KCAL/MOL
REMARK 923 INTER-LIGAND FREE ENERGY PREDICTED BY IDOCK:   -6.29 KCAL/MOL
REMARK 924 INTRA-LIGAND FREE ENERGY PREDICTED BY IDOCK:   -0.79 KCAL/MOL
REMARK 927      BINDING AFFINITY PREDICTED BY RF-SCORE:    0.00 PKD
ROOT
HETATM    1  C   UNL     1      -6.229  15.695  67.550  1.00  0.00    -0.131 C  
HETATM    2  N   UNL     1      -7.584  15.554  68.053  1.00  0.00    -0.120 N  
HETATM    3  C   UNL     1      -8.106  14.257  68.074  1.00  0.00    -0.145 C  
HETATM    4  C   UNL     1      -8.113  16.624  68.882  1.00  0.00    -0.235 C  
HETATM    5  O   UNL     1      -7.468  13.306  67.623  1.00  0.00    -0.142 OA 
ENDROOT
BRANCH   3   6
HETATM    6  C   UNL     1      -9.510  14.097  68.660  1.00  0.00    -0.163 C  
BRANCH   6   7
HETATM    7  C   UNL     1     -10.353  13.190  67.823  1.00  0.00    -0.230 A  
HETATM    8  C   UNL     1     -10.751  11.866  67.980  1.00  0.00    -0.209 A  
HETATM    9  N   UNL     1     -11.417  11.426  66.854  1.00  0.00    -0.466 NA 
HETATM   10  N   UNL     1     -10.919  13.592  66.625  1.00  0.00    -0.286 NA 
HETATM   11  C   UNL     1     -11.510  12.468  66.062  1.00  0.00    -0.377 A  
HETATM   12  C   UNL     1     -10.930  14.847  66.007  1.00  0.00    -0.334 A  
HETATM   13  C   UNL     1     -11.584  16.319  64.105  1.00  0.00     0.199 C  
HETATM   14  C   UNL     1     -12.104  12.617  64.778  1.00  0.00    -0.495 A  
HETATM   15  C   UNL     1     -11.515  14.998  64.803  1.00  0.00    -0.403 A  
HETATM   16  C   UNL     1     -12.107  13.821  64.169  1.00  0.00    -0.478 A  
BRANCH   8  17
HETATM   17  C   UNL     1     -10.469  10.986  69.109  1.00  0.00    -0.238 A  
HETATM   18  C   UNL     1     -11.268   9.766  71.061  1.00  0.00    -0.451 A  
HETATM   19  C   UNL     1     -10.008   9.188  71.246  1.00  0.00    -0.373 A  
HETATM   20  C   UNL     1      -8.964   9.564  70.398  1.00  0.00    -0.291 A  
HETATM   21  C   UNL     1      -9.192  10.466  69.354  1.00  0.00    -0.177 A  
HETATM   22  C   UNL     1     -11.496  10.654  70.001  1.00  0.00    -0.404 A  
HETATM   23  C   UNL     1      -9.782   8.195  72.347  1.00  0.00    -0.338 C  
ENDBRANCH   8  17
ENDBRANCH   6   7
ENDBRANCH   3   6
TORSDOF 3
ENDMDL
MODEL       60
REMARK 921   NORMALIZED FREE ENERGY PREDICTED BY IDOCK:   -5.24 KCAL/MOL
REMARK 922        TOTAL FREE ENERGY PREDICTED BY IDOCK:   -7.01 KCAL/MOL
REMARK 923 INTER-LIGAND FREE ENERGY PREDICTED BY IDOCK:   -6.24 KCAL/MOL
REMARK 924 INTRA-LIGAND FREE ENERGY PREDICTED BY IDOCK:   -0.77 KCAL/MOL
REMARK 927      BINDING AFFINITY PREDICTED BY RF-SCORE:    0.00 PKD
ROOT
HETATM    1  C   UNL     1      -6.315  10.534  65.977  1.00  0.00    -0.124 C  
HETATM    2  N   UNL     1      -7.705  10.124  65.882  1.00  0.00    -0.121 N  
HETATM    3  C   UNL     1      -8.435  10.127  67.074  1.00  0.00    -0.129 C  
HETATM    4  C   UNL     1      -8.339  10.180  64.576  1.00  0.00    -0.167 C  
HETATM    5  O   UNL     1      -7.899  10.396  68.149  1.00  0.00    -0.104 OA 
ENDROOT
BRANCH   3   6
HETATM    6  C   UNL     1      -9.915   9.755  66.968  1.00  0.00    -0.259 C  
BRANCH   6   7
HETATM    7  C   UNL     1     -10.724  10.410  68.040  1.00  0.00    -0.249 A  
HETATM    8  C   UNL     1     -11.283  11.680  68.153  1.00  0.00    -0.263 A  
HETATM    9  N   UNL     1     -11.824  11.858  69.409  1.00  0.00    -0.322 NA 
HETATM   10  N   UNL     1     -11.065   9.766  69.218  1.00  0.00    -0.192 NA 
HETATM   11  C   UNL     1     -11.689  10.708  70.026  1.00  0.00    -0.324 A  
HETATM   12  C   UNL     1     -10.850   8.443  69.618  1.00  0.00    -0.148 A  
HETATM   13  C   UNL     1     -11.061   6.634  71.319  1.00  0.00    -0.312 C  
HETATM   14  C   UNL     1     -12.074  10.295  71.332  1.00  0.00    -0.457 A  
HETATM   15  C   UNL     1     -11.238   8.041  70.844  1.00  0.00    -0.282 A  
HETATM   16  C   UNL     1     -11.858   9.025  71.731  1.00  0.00    -0.442 A  
BRANCH   8  17
HETATM   17  C   UNL     1     -11.262  12.746  67.157  1.00  0.00    -0.336 A  
HETATM   18  C   UNL     1     -11.998  13.606  64.999  1.00  0.00    -0.401 A  
HETATM   19  C   UNL     1     -11.358  14.827  65.240  1.00  0.00    -0.363 A  
HETATM   20  C   UNL     1     -10.615  14.976  66.413  1.00  0.00    -0.310 A  
HETATM   21  C   UNL     1     -10.557  13.939  67.350  1.00  0.00    -0.267 A  
HETATM   22  C   UNL     1     -11.952  12.578  65.950  1.00  0.00    -0.472 A  
HETATM   23  C   UNL     1     -11.455  15.944  64.245  1.00  0.00    -0.197 C  
ENDBRANCH   8  17
ENDBRANCH   6   7
ENDBRANCH   3   6
TORSDOF 3
ENDMDL
MODEL       61
REMARK 921   NORMALIZED FREE ENERGY PREDICTED BY IDOCK:   -5.24 KCAL/MOL
REMARK 922        TOTAL FREE ENERGY PREDICTED BY IDOCK:   -7.00 KCAL/MOL
REMARK 923 INTER-LIGAND FREE ENERGY PREDICTED BY IDOCK:   -6.75 KCAL/MOL
REMARK 924 INTRA-LIGAND FREE ENERGY PREDICTED BY IDOCK:   -0.25 KCAL/MOL
REMARK 927      BINDING AFFINITY PREDICTED BY RF-SCORE:    0.00 PKD
ROOT
HETATM    1  C   UNL     1      -7.874  13.413  68.139  1.00  0.00    -0.145 C  
HETATM    2  N   UNL     1      -9.118  12.741  67.809  1.00  0.00    -0.187 N  
HETATM    3  C   UNL     1      -9.386  11.556  68.500  1.00  0.00    -0.170 C  
HETATM    4  C   UNL     1     -10.160  13.524  67.165  1.00  0.00    -0.245 C  
HETATM    5  O   UNL     1      -8.570  11.083  69.291  1.00  0.00    -0.061 OA 
ENDROOT
BRANCH   3   6
HETATM    6  C   UNL     1     -10.723  10.878  68.199  1.00  0.00    -0.256 C  
BRANCH   6   7
HETATM    7  C   UNL     1     -11.194  10.057  69.355  1.00  0.00    -0.188 A  
HETATM    8  C   UNL     1     -11.887  10.380  70.518  1.00  0.00    -0.337 A  
HETATM    9  N   UNL     1     -11.964   9.285  71.353  1.00  0.00    -0.327 NA 
HETATM   10  N   UNL     1     -10.974   8.692  69.441  1.00  0.00    -0.096 NA 
HETATM   11  C   UNL     1     -11.420   8.290  70.693  1.00  0.00    -0.225 A  
HETATM   12  C   UNL     1     -10.404   7.810  68.516  1.00  0.00    -0.197 A  
HETATM   13  C   UNL     1      -9.674   5.513  67.881  1.00  0.00    -0.155 C  
HETATM   14  C   UNL     1     -11.233   6.924  71.044  1.00  0.00    -0.323 A  
HETATM   15  C   UNL     1     -10.250   6.510  68.835  1.00  0.00    -0.206 A  
HETATM   16  C   UNL     1     -10.671   6.070  70.165  1.00  0.00    -0.379 A  
BRANCH   8  17
HETATM   17  C   UNL     1     -12.409  11.687  70.901  1.00  0.00    -0.436 A  
HETATM   18  C   UNL     1     -12.550  14.085  70.489  1.00  0.00    -0.399 A  
HETATM   19  C   UNL     1     -13.485  14.231  71.520  1.00  0.00    -0.426 A  
HETATM   20  C   UNL     1     -13.828  13.112  72.281  1.00  0.00    -0.586 A  
HETATM   21  C   UNL     1     -13.281  11.860  71.982  1.00  0.00    -0.461 A  
HETATM   22  C   UNL     1     -12.020  12.825  70.182  1.00  0.00    -0.371 A  
HETATM   23  C   UNL     1     -14.091  15.572  71.810  1.00  0.00    -0.570 C  
ENDBRANCH   8  17
ENDBRANCH   6   7
ENDBRANCH   3   6
TORSDOF 3
ENDMDL
MODEL       62
REMARK 921   NORMALIZED FREE ENERGY PREDICTED BY IDOCK:   -5.18 KCAL/MOL
REMARK 922        TOTAL FREE ENERGY PREDICTED BY IDOCK:   -6.94 KCAL/MOL
REMARK 923 INTER-LIGAND FREE ENERGY PREDICTED BY IDOCK:   -6.27 KCAL/MOL
REMARK 924 INTRA-LIGAND FREE ENERGY PREDICTED BY IDOCK:   -0.67 KCAL/MOL
REMARK 927      BINDING AFFINITY PREDICTED BY RF-SCORE:    0.00 PKD
ROOT
HETATM    1  C   UNL     1      -8.926   8.484  72.039  1.00  0.00    -0.231 C  
HETATM    2  N   UNL     1     -10.043   8.760  71.154  1.00  0.00    -0.224 N  
HETATM    3  C   UNL     1      -9.727   9.311  69.909  1.00  0.00    -0.201 C  
HETATM    4  C   UNL     1     -11.295   8.066  71.407  1.00  0.00    -0.256 C  
HETATM    5  O   UNL     1      -8.567   9.607  69.620  1.00  0.00    -0.153 OA 
ENDROOT
BRANCH   3   6
HETATM    6  C   UNL     1     -10.895   9.547  68.950  1.00  0.00    -0.177 C  
BRANCH   6   7
HETATM    7  C   UNL     1     -10.966  10.974  68.513  1.00  0.00    -0.228 A  
HETATM    8  C   UNL     1     -10.554  11.623  67.353  1.00  0.00    -0.220 A  
HETATM    9  N   UNL     1     -10.713  12.988  67.483  1.00  0.00    -0.236 NA 
HETATM   10  N   UNL     1     -11.515  11.971  69.303  1.00  0.00    -0.282 NA 
HETATM   11  C   UNL     1     -11.291  13.174  68.647  1.00  0.00    -0.289 A  
HETATM   12  C   UNL     1     -12.167  11.887  70.538  1.00  0.00    -0.336 A  
HETATM   13  C   UNL     1     -13.316  12.985  72.458  1.00  0.00    -0.471 C  
HETATM   14  C   UNL     1     -11.708  14.364  69.305  1.00  0.00    -0.358 A  
HETATM   15  C   UNL     1     -12.589  13.010  71.151  1.00  0.00    -0.388 A  
HETATM   16  C   UNL     1     -12.325  14.294  70.502  1.00  0.00    -0.430 A  
BRANCH   8  17
HETATM   17  C   UNL     1      -9.955  11.020  66.168  1.00  0.00    -0.277 A  
HETATM   18  C   UNL     1      -8.273   9.551  65.193  1.00  0.00    -0.134 A  
HETATM   19  C   UNL     1      -8.825   9.726  63.919  1.00  0.00    -0.259 A  
HETATM   20  C   UNL     1      -9.901  10.602  63.766  1.00  0.00    -0.394 A  
HETATM   21  C   UNL     1     -10.446  11.253  64.878  1.00  0.00    -0.375 A  
HETATM   22  C   UNL     1      -8.835  10.190  66.305  1.00  0.00    -0.163 A  
HETATM   23  C   UNL     1      -8.255   8.997  62.738  1.00  0.00    -0.184 C  
ENDBRANCH   8  17
ENDBRANCH   6   7
ENDBRANCH   3   6
TORSDOF 3
ENDMDL
MODEL       63
REMARK 921   NORMALIZED FREE ENERGY PREDICTED BY IDOCK:   -5.18 KCAL/MOL
REMARK 922        TOTAL FREE ENERGY PREDICTED BY IDOCK:   -6.93 KCAL/MOL
REMARK 923 INTER-LIGAND FREE ENERGY PREDICTED BY IDOCK:   -6.44 KCAL/MOL
REMARK 924 INTRA-LIGAND FREE ENERGY PREDICTED BY IDOCK:   -0.50 KCAL/MOL
REMARK 927      BINDING AFFINITY PREDICTED BY RF-SCORE:    0.00 PKD
ROOT
HETATM    1  C   UNL     1      -7.455  13.574  67.508  1.00  0.00    -0.167 C  
HETATM    2  N   UNL     1      -8.839  13.183  67.303  1.00  0.00    -0.200 N  
HETATM    3  C   UNL     1      -9.266  12.037  67.981  1.00  0.00    -0.192 C  
HETATM    4  C   UNL     1      -9.762  14.193  66.813  1.00  0.00    -0.277 C  
HETATM    5  O   UNL     1      -8.484  11.367  68.655  1.00  0.00    -0.155 OA 
ENDROOT
BRANCH   3   6
HETATM    6  C   UNL     1     -10.739  11.657  67.816  1.00  0.00    -0.244 C  
BRANCH   6   7
HETATM    7  C   UNL     1     -11.349  11.248  69.117  1.00  0.00    -0.282 A  
HETATM    8  C   UNL     1     -11.503  10.011  69.735  1.00  0.00    -0.184 A  
HETATM    9  N   UNL     1     -12.267  10.135  70.878  1.00  0.00    -0.329 NA 
HETATM   10  N   UNL     1     -11.922  12.156  69.991  1.00  0.00    -0.338 NA 
HETATM   11  C   UNL     1     -12.502  11.419  71.015  1.00  0.00    -0.383 A  
HETATM   12  C   UNL     1     -11.977  13.553  69.933  1.00  0.00    -0.348 A  
HETATM   13  C   UNL     1     -12.705  15.733  70.899  1.00  0.00    -0.422 C  
HETATM   14  C   UNL     1     -13.220  12.137  72.011  1.00  0.00    -0.496 A  
HETATM   15  C   UNL     1     -12.634  14.239  70.890  1.00  0.00    -0.426 A  
HETATM   16  C   UNL     1     -13.290  13.483  71.956  1.00  0.00    -0.563 A  
BRANCH   8  17
HETATM   17  C   UNL     1     -11.025   8.718  69.257  1.00  0.00    -0.006 A  
HETATM   18  C   UNL     1     -10.536   6.373  69.706  1.00  0.00    -0.266 A  
HETATM   19  C   UNL     1     -10.219   6.157  68.360  1.00  0.00    -0.208 A  
HETATM   20  C   UNL     1     -10.244   7.242  67.481  1.00  0.00    -0.284 A  
HETATM   21  C   UNL     1     -10.626   8.509  67.932  1.00  0.00    -0.219 A  
HETATM   22  C   UNL     1     -10.937   7.641  70.148  1.00  0.00    -0.255 A  
HETATM   23  C   UNL     1      -9.844   4.787  67.879  1.00  0.00    -0.191 C  
ENDBRANCH   8  17
ENDBRANCH   6   7
ENDBRANCH   3   6
TORSDOF 3
ENDMDL
MODEL       64
REMARK 921   NORMALIZED FREE ENERGY PREDICTED BY IDOCK:   -5.18 KCAL/MOL
REMARK 922        TOTAL FREE ENERGY PREDICTED BY IDOCK:   -6.93 KCAL/MOL
REMARK 923 INTER-LIGAND FREE ENERGY PREDICTED BY IDOCK:   -6.36 KCAL/MOL
REMARK 924 INTRA-LIGAND FREE ENERGY PREDICTED BY IDOCK:   -0.57 KCAL/MOL
REMARK 927      BINDING AFFINITY PREDICTED BY RF-SCORE:    0.00 PKD
ROOT
HETATM    1  C   UNL     1     -12.969  13.848  72.597  1.00  0.00    -0.346 C  
HETATM    2  N   UNL     1     -12.714  14.296  71.239  1.00  0.00    -0.335 N  
HETATM    3  C   UNL     1     -12.341  13.311  70.320  1.00  0.00    -0.264 C  
HETATM    4  C   UNL     1     -13.274  15.574  70.833  1.00  0.00    -0.415 C  
HETATM    5  O   UNL     1     -12.173  12.143  70.672  1.00  0.00    -0.372 OA 
ENDROOT
BRANCH   3   6
HETATM    6  C   UNL     1     -12.131  13.770  68.876  1.00  0.00    -0.348 C  
BRANCH   6   7
HETATM    7  C   UNL     1     -10.679  13.828  68.525  1.00  0.00    -0.262 A  
HETATM    8  C   UNL     1      -9.754  12.845  68.187  1.00  0.00    -0.227 A  
HETATM    9  N   UNL     1      -8.490  13.389  68.087  1.00  0.00    -0.166 NA 
HETATM   10  N   UNL     1      -9.967  15.015  68.488  1.00  0.00    -0.213 NA 
HETATM   11  C   UNL     1      -8.638  14.681  68.264  1.00  0.00    -0.167 A  
HETATM   12  C   UNL     1     -10.402  16.335  68.653  1.00  0.00    -0.263 A  
HETATM   13  C   UNL     1      -9.917  18.777  68.761  1.00  0.00    -0.442 C  
HETATM   14  C   UNL     1      -7.690  15.742  68.255  1.00  0.00    -0.132 A  
HETATM   15  C   UNL     1      -9.511  17.345  68.618  1.00  0.00    -0.280 A  
HETATM   16  C   UNL     1      -8.099  17.015  68.427  1.00  0.00    -0.245 A  
BRANCH   8  17
HETATM   17  C   UNL     1     -10.000  11.417  68.029  1.00  0.00    -0.192 A  
HETATM   18  C   UNL     1     -10.278   9.493  66.558  1.00  0.00    -0.307 A  
HETATM   19  C   UNL     1     -10.356   8.633  67.659  1.00  0.00    -0.317 A  
HETATM   20  C   UNL     1     -10.322   9.180  68.944  1.00  0.00    -0.232 A  
HETATM   21  C   UNL     1     -10.164  10.558  69.121  1.00  0.00    -0.241 A  
HETATM   22  C   UNL     1     -10.099  10.870  66.743  1.00  0.00    -0.259 A  
HETATM   23  C   UNL     1     -10.492   7.153  67.458  1.00  0.00    -0.331 C  
ENDBRANCH   8  17
ENDBRANCH   6   7
ENDBRANCH   3   6
TORSDOF 3
ENDMDL
MODEL       65
REMARK 921   NORMALIZED FREE ENERGY PREDICTED BY IDOCK:   -5.15 KCAL/MOL
REMARK 922        TOTAL FREE ENERGY PREDICTED BY IDOCK:   -6.89 KCAL/MOL
REMARK 923 INTER-LIGAND FREE ENERGY PREDICTED BY IDOCK:   -6.06 KCAL/MOL
REMARK 924 INTRA-LIGAND FREE ENERGY PREDICTED BY IDOCK:   -0.84 KCAL/MOL
REMARK 927      BINDING AFFINITY PREDICTED BY RF-SCORE:    0.00 PKD
ROOT
HETATM    1  C   UNL     1      -6.613   8.079  66.953  1.00  0.00    -0.057 C  
HETATM    2  N   UNL     1      -8.060   8.170  66.863  1.00  0.00    -0.103 N  
HETATM    3  C   UNL     1      -8.757   8.195  68.074  1.00  0.00    -0.128 C  
HETATM    4  C   UNL     1      -8.631   8.665  65.621  1.00  0.00    -0.168 C  
HETATM    5  O   UNL     1      -8.170   8.075  69.150  1.00  0.00    -0.126 OA 
ENDROOT
BRANCH   3   6
HETATM    6  C   UNL     1     -10.276   8.352  67.984  1.00  0.00    -0.263 C  
BRANCH   6   7
HETATM    7  C   UNL     1     -10.766   9.461  68.857  1.00  0.00    -0.178 A  
HETATM    8  C   UNL     1     -11.132   9.510  70.199  1.00  0.00    -0.255 A  
HETATM    9  N   UNL     1     -11.658  10.747  70.510  1.00  0.00    -0.332 NA 
HETATM   10  N   UNL     1     -10.952  10.752  68.391  1.00  0.00    -0.228 NA 
HETATM   11  C   UNL     1     -11.538  11.473  69.423  1.00  0.00    -0.321 A  
HETATM   12  C   UNL     1     -10.661  11.311  67.141  1.00  0.00    -0.253 A  
HETATM   13  C   UNL     1     -10.661  13.261  65.589  1.00  0.00    -0.291 C  
HETATM   14  C   UNL     1     -11.892  12.824  69.156  1.00  0.00    -0.352 A  
HETATM   15  C   UNL     1     -10.971  12.599  66.894  1.00  0.00    -0.297 A  
HETATM   16  C   UNL     1     -11.628  13.368  67.950  1.00  0.00    -0.374 A  
BRANCH   8  17
HETATM   17  C   UNL     1     -11.074   8.424  71.170  1.00  0.00    -0.301 A  
HETATM   18  C   UNL     1     -11.887   6.259  71.939  1.00  0.00    -0.359 A  
HETATM   19  C   UNL     1     -10.925   6.231  72.954  1.00  0.00    -0.283 A  
HETATM   20  C   UNL     1     -10.084   7.334  73.114  1.00  0.00    -0.319 A  
HETATM   21  C   UNL     1     -10.172   8.423  72.241  1.00  0.00    -0.396 A  
HETATM   22  C   UNL     1     -11.957   7.343  71.055  1.00  0.00    -0.337 A  
HETATM   23  C   UNL     1     -10.816   5.043  73.864  1.00  0.00    -0.336 C  
ENDBRANCH   8  17
ENDBRANCH   6   7
ENDBRANCH   3   6
TORSDOF 3
ENDMDL
MODEL       66
REMARK 921   NORMALIZED FREE ENERGY PREDICTED BY IDOCK:   -5.12 KCAL/MOL
REMARK 922        TOTAL FREE ENERGY PREDICTED BY IDOCK:   -6.86 KCAL/MOL
REMARK 923 INTER-LIGAND FREE ENERGY PREDICTED BY IDOCK:   -5.95 KCAL/MOL
REMARK 924 INTRA-LIGAND FREE ENERGY PREDICTED BY IDOCK:   -0.91 KCAL/MOL
REMARK 927      BINDING AFFINITY PREDICTED BY RF-SCORE:    0.00 PKD
ROOT
HETATM    1  C   UNL     1      -9.519   6.299  66.799  1.00  0.00    -0.144 C  
HETATM    2  N   UNL     1      -8.958   7.385  67.583  1.00  0.00    -0.127 N  
HETATM    3  C   UNL     1      -9.587   8.627  67.461  1.00  0.00    -0.157 C  
HETATM    4  C   UNL     1      -8.125   7.037  68.722  1.00  0.00    -0.121 C  
HETATM    5  O   UNL     1     -10.521   8.794  66.677  1.00  0.00    -0.264 OA 
ENDROOT
BRANCH   3   6
HETATM    6  C   UNL     1      -9.036   9.758  68.331  1.00  0.00    -0.123 C  
BRANCH   6   7
HETATM    7  C   UNL     1     -10.130  10.479  69.051  1.00  0.00    -0.217 A  
HETATM    8  C   UNL     1     -10.961  10.113  70.106  1.00  0.00    -0.316 A  
HETATM    9  N   UNL     1     -11.918  11.083  70.323  1.00  0.00    -0.334 NA 
HETATM   10  N   UNL     1     -10.517  11.767  68.723  1.00  0.00    -0.214 NA 
HETATM   11  C   UNL     1     -11.634  12.061  69.495  1.00  0.00    -0.321 A  
HETATM   12  C   UNL     1      -9.973  12.666  67.800  1.00  0.00    -0.218 A  
HETATM   13  C   UNL     1      -9.999  14.885  66.664  1.00  0.00    -0.267 C  
HETATM   14  C   UNL     1     -12.262  13.319  69.283  1.00  0.00    -0.194 A  
HETATM   15  C   UNL     1     -10.549  13.870  67.615  1.00  0.00    -0.247 A  
HETATM   16  C   UNL     1     -11.752  14.187  68.384  1.00  0.00    -0.380 A  
BRANCH   8  17
HETATM   17  C   UNL     1     -10.935   8.865  70.860  1.00  0.00    -0.325 A  
HETATM   18  C   UNL     1     -10.378   7.672  72.911  1.00  0.00    -0.380 A  
HETATM   19  C   UNL     1     -10.965   6.501  72.417  1.00  0.00    -0.279 A  
HETATM   20  C   UNL     1     -11.475   6.501  71.118  1.00  0.00    -0.380 A  
HETATM   21  C   UNL     1     -11.443   7.666  70.345  1.00  0.00    -0.192 A  
HETATM   22  C   UNL     1     -10.367   8.841  72.140  1.00  0.00    -0.378 A  
HETATM   23  C   UNL     1     -11.024   5.266  73.266  1.00  0.00    -0.369 C  
ENDBRANCH   8  17
ENDBRANCH   6   7
ENDBRANCH   3   6
TORSDOF 3
ENDMDL
MODEL       67
REMARK 921   NORMALIZED FREE ENERGY PREDICTED BY IDOCK:   -5.11 KCAL/MOL
REMARK 922        TOTAL FREE ENERGY PREDICTED BY IDOCK:   -6.85 KCAL/MOL
REMARK 923 INTER-LIGAND FREE ENERGY PREDICTED BY IDOCK:   -6.45 KCAL/MOL
REMARK 924 INTRA-LIGAND FREE ENERGY PREDICTED BY IDOCK:   -0.40 KCAL/MOL
REMARK 927      BINDING AFFINITY PREDICTED BY RF-SCORE:    0.00 PKD
ROOT
HETATM    1  C   UNL     1     -11.832  16.117  71.494  1.00  0.00    -0.463 C  
HETATM    2  N   UNL     1     -12.572  14.932  71.098  1.00  0.00    -0.309 N  
HETATM    3  C   UNL     1     -11.918  14.054  70.229  1.00  0.00    -0.339 C  
HETATM    4  C   UNL     1     -13.688  14.520  71.933  1.00  0.00    -0.428 C  
HETATM    5  O   UNL     1     -10.803  14.318  69.777  1.00  0.00    -0.143 OA 
ENDROOT
BRANCH   3   6
HETATM    6  C   UNL     1     -12.670  12.775  69.857  1.00  0.00     0.345 C  
BRANCH   6   7
HETATM    7  C   UNL     1     -11.779  11.798  69.160  1.00  0.00    -0.325 A  
HETATM    8  C   UNL     1     -11.167  11.808  67.911  1.00  0.00    -0.267 A  
HETATM    9  N   UNL     1     -10.552  10.598  67.666  1.00  0.00    -0.227 NA 
HETATM   10  N   UNL     1     -11.399  10.595  69.732  1.00  0.00    -0.278 NA 
HETATM   11  C   UNL     1     -10.696   9.892  68.763  1.00  0.00    -0.220 A  
HETATM   12  C   UNL     1     -11.642  10.088  71.014  1.00  0.00    -0.393 A  
HETATM   13  C   UNL     1     -11.409   8.270  72.703  1.00  0.00    -0.421 C  
HETATM   14  C   UNL     1     -10.258   8.581  69.096  1.00  0.00    -0.218 A  
HETATM   15  C   UNL     1     -11.204   8.857  71.342  1.00  0.00    -0.382 A  
HETATM   16  C   UNL     1     -10.500   8.078  70.324  1.00  0.00    -0.222 A  
BRANCH   8  17
HETATM   17  C   UNL     1     -11.201  12.878  66.919  1.00  0.00    -0.331 A  
HETATM   18  C   UNL     1     -12.461  14.174  65.284  1.00  0.00    -0.474 A  
HETATM   19  C   UNL     1     -11.363  15.016  65.071  1.00  0.00    -0.395 A  
HETATM   20  C   UNL     1     -10.166  14.742  65.736  1.00  0.00    -0.359 A  
HETATM   21  C   UNL     1     -10.086  13.674  66.636  1.00  0.00    -0.277 A  
HETATM   22  C   UNL     1     -12.380  13.118  66.201  1.00  0.00    -0.385 A  
HETATM   23  C   UNL     1     -11.470  16.179  64.130  1.00  0.00     0.062 C  
ENDBRANCH   8  17
ENDBRANCH   6   7
ENDBRANCH   3   6
TORSDOF 3
ENDMDL
MODEL       68
REMARK 921   NORMALIZED FREE ENERGY PREDICTED BY IDOCK:   -5.08 KCAL/MOL
REMARK 922        TOTAL FREE ENERGY PREDICTED BY IDOCK:   -6.82 KCAL/MOL
REMARK 923 INTER-LIGAND FREE ENERGY PREDICTED BY IDOCK:   -6.25 KCAL/MOL
REMARK 924 INTRA-LIGAND FREE ENERGY PREDICTED BY IDOCK:   -0.57 KCAL/MOL
REMARK 927      BINDING AFFINITY PREDICTED BY RF-SCORE:    0.00 PKD
ROOT
HETATM    1  C   UNL     1     -12.149  13.229  63.264  1.00  0.00    -0.337 C  
HETATM    2  N   UNL     1     -11.627  12.584  64.456  1.00  0.00    -0.331 N  
HETATM    3  C   UNL     1     -12.039  13.116  65.681  1.00  0.00    -0.449 C  
HETATM    4  C   UNL     1     -11.115  11.230  64.323  1.00  0.00    -0.222 C  
HETATM    5  O   UNL     1     -12.750  14.120  65.732  1.00  0.00    -0.508 OA 
ENDROOT
BRANCH   3   6
HETATM    6  C   UNL     1     -11.539  12.401  66.937  1.00  0.00    -0.437 C  
BRANCH   6   7
HETATM    7  C   UNL     1     -10.067  12.580  67.121  1.00  0.00    -0.214 A  
HETATM    8  C   UNL     1      -9.261  13.711  67.205  1.00  0.00    -0.232 A  
HETATM    9  N   UNL     1      -7.929  13.351  67.232  1.00  0.00    -0.153 NA 
HETATM   10  N   UNL     1      -9.195  11.511  67.241  1.00  0.00    -0.165 NA 
HETATM   11  C   UNL     1      -7.910  12.039  67.259  1.00  0.00    -0.170 A  
HETATM   12  C   UNL     1      -9.454  10.138  67.317  1.00  0.00    -0.154 A  
HETATM   13  C   UNL     1      -8.643   7.789  67.502  1.00  0.00    -0.122 C  
HETATM   14  C   UNL     1      -6.827  11.120  67.307  1.00  0.00    -0.095 A  
HETATM   15  C   UNL     1      -8.430   9.265  67.391  1.00  0.00    -0.122 A  
HETATM   16  C   UNL     1      -7.067   9.793  67.366  1.00  0.00    -0.085 A  
BRANCH   8  17
HETATM   17  C   UNL     1      -9.689  15.105  67.187  1.00  0.00    -0.230 A  
HETATM   18  C   UNL     1     -10.635  17.018  68.365  1.00  0.00    -0.375 A  
HETATM   19  C   UNL     1     -10.427  17.837  67.250  1.00  0.00    -0.356 A  
HETATM   20  C   UNL     1      -9.912  17.268  66.084  1.00  0.00    -0.288 A  
HETATM   21  C   UNL     1      -9.564  15.914  66.052  1.00  0.00    -0.385 A  
HETATM   22  C   UNL     1     -10.266  15.666  68.333  1.00  0.00    -0.222 A  
HETATM   23  C   UNL     1     -10.772  19.296  67.306  1.00  0.00    -0.594 C  
ENDBRANCH   8  17
ENDBRANCH   6   7
ENDBRANCH   3   6
TORSDOF 3
ENDMDL
MODEL       69
REMARK 921   NORMALIZED FREE ENERGY PREDICTED BY IDOCK:   -5.07 KCAL/MOL
REMARK 922        TOTAL FREE ENERGY PREDICTED BY IDOCK:   -6.80 KCAL/MOL
REMARK 923 INTER-LIGAND FREE ENERGY PREDICTED BY IDOCK:   -6.24 KCAL/MOL
REMARK 924 INTRA-LIGAND FREE ENERGY PREDICTED BY IDOCK:   -0.56 KCAL/MOL
REMARK 927      BINDING AFFINITY PREDICTED BY RF-SCORE:    0.00 PKD
ROOT
HETATM    1  C   UNL     1      -5.712  14.664  69.061  1.00  0.00    -0.084 C  
HETATM    2  N   UNL     1      -6.869  13.885  68.655  1.00  0.00    -0.094 N  
HETATM    3  C   UNL     1      -7.581  14.361  67.550  1.00  0.00    -0.193 C  
HETATM    4  C   UNL     1      -6.943  12.503  69.097  1.00  0.00    -0.025 C  
HETATM    5  O   UNL     1      -7.274  15.421  67.004  1.00  0.00    -0.180 OA 
ENDROOT
BRANCH   3   6
HETATM    6  C   UNL     1      -8.764  13.511  67.083  1.00  0.00    -0.222 C  
BRANCH   6   7
HETATM    7  C   UNL     1      -9.965  13.720  67.948  1.00  0.00    -0.240 A  
HETATM    8  C   UNL     1     -10.726  14.847  68.242  1.00  0.00    -0.249 A  
HETATM    9  N   UNL     1     -11.659  14.557  69.216  1.00  0.00    -0.284 NA 
HETATM   10  N   UNL     1     -10.553  12.695  68.669  1.00  0.00    -0.237 NA 
HETATM   11  C   UNL     1     -11.544  13.271  69.453  1.00  0.00    -0.305 A  
HETATM   12  C   UNL     1     -10.267  11.325  68.689  1.00  0.00    -0.203 A  
HETATM   13  C   UNL     1     -10.712   9.033  69.559  1.00  0.00    -0.215 C  
HETATM   14  C   UNL     1     -12.250  12.416  70.344  1.00  0.00    -0.370 A  
HETATM   15  C   UNL     1     -10.953  10.509  69.512  1.00  0.00    -0.312 A  
HETATM   16  C   UNL     1     -11.971  11.097  70.380  1.00  0.00    -0.469 A  
BRANCH   8  17
HETATM   17  C   UNL     1     -10.563  16.191  67.699  1.00  0.00    -0.315 A  
HETATM   18  C   UNL     1     -10.406  17.658  65.759  1.00  0.00    -0.194 A  
HETATM   19  C   UNL     1     -10.369  18.786  66.585  1.00  0.00    -0.472 A  
HETATM   20  C   UNL     1     -10.362  18.606  67.969  1.00  0.00    -0.421 A  
HETATM   21  C   UNL     1     -10.441  17.321  68.516  1.00  0.00    -0.375 A  
HETATM   22  C   UNL     1     -10.505  16.374  66.311  1.00  0.00    -0.298 A  
HETATM   23  C   UNL     1     -10.318  20.162  65.989  1.00  0.00    -0.483 C  
ENDBRANCH   8  17
ENDBRANCH   6   7
ENDBRANCH   3   6
TORSDOF 3
ENDMDL
MODEL       70
REMARK 921   NORMALIZED FREE ENERGY PREDICTED BY IDOCK:   -5.07 KCAL/MOL
REMARK 922        TOTAL FREE ENERGY PREDICTED BY IDOCK:   -6.80 KCAL/MOL
REMARK 923 INTER-LIGAND FREE ENERGY PREDICTED BY IDOCK:   -6.24 KCAL/MOL
REMARK 924 INTRA-LIGAND FREE ENERGY PREDICTED BY IDOCK:   -0.55 KCAL/MOL
REMARK 927      BINDING AFFINITY PREDICTED BY RF-SCORE:    0.00 PKD
ROOT
HETATM    1  C   UNL     1     -13.383  14.415  70.979  1.00  0.00    -0.300 C  
HETATM    2  N   UNL     1     -12.142  14.414  70.223  1.00  0.00    -0.310 N  
HETATM    3  C   UNL     1     -11.336  15.549  70.352  1.00  0.00    -0.342 C  
HETATM    4  C   UNL     1     -11.623  13.132  69.777  1.00  0.00    -0.221 C  
HETATM    5  O   UNL     1     -11.703  16.518  71.017  1.00  0.00    -0.253 OA 
ENDROOT
BRANCH   3   6
HETATM    6  C   UNL     1     -10.001  15.526  69.606  1.00  0.00    -0.287 C  
BRANCH   6   7
HETATM    7  C   UNL     1     -10.145  16.034  68.208  1.00  0.00    -0.229 A  
HETATM    8  C   UNL     1     -10.204  15.392  66.976  1.00  0.00    -0.262 A  
HETATM    9  N   UNL     1     -10.197  16.315  65.950  1.00  0.00    -0.348 NA 
HETATM   10  N   UNL     1     -10.245  17.383  67.911  1.00  0.00    -0.330 NA 
HETATM   11  C   UNL     1     -10.227  17.494  66.527  1.00  0.00    -0.342 A  
HETATM   12  C   UNL     1     -10.332  18.491  68.762  1.00  0.00    -0.170 A  
HETATM   13  C   UNL     1     -10.502  20.955  69.097  1.00  0.00     0.674 C  
HETATM   14  C   UNL     1     -10.249  18.805  65.976  1.00  0.00    -0.413 A  
HETATM   15  C   UNL     1     -10.381  19.733  68.242  1.00  0.00    -0.536 A  
HETATM   16  C   UNL     1     -10.318  19.879  66.789  1.00  0.00    -0.599 A  
BRANCH   8  17
HETATM   17  C   UNL     1     -10.194  13.955  66.727  1.00  0.00    -0.268 A  
HETATM   18  C   UNL     1      -8.954  11.858  66.630  1.00  0.00    -0.198 A  
HETATM   19  C   UNL     1     -10.132  11.146  66.375  1.00  0.00    -0.269 A  
HETATM   20  C   UNL     1     -11.327  11.853  66.231  1.00  0.00    -0.394 A  
HETATM   21  C   UNL     1     -11.350  13.243  66.389  1.00  0.00    -0.341 A  
HETATM   22  C   UNL     1      -8.987  13.247  66.807  1.00  0.00    -0.183 A  
HETATM   23  C   UNL     1     -10.102   9.653  66.241  1.00  0.00    -0.322 C  
ENDBRANCH   8  17
ENDBRANCH   6   7
ENDBRANCH   3   6
TORSDOF 3
ENDMDL
MODEL       71
REMARK 921   NORMALIZED FREE ENERGY PREDICTED BY IDOCK:   -5.06 KCAL/MOL
REMARK 922        TOTAL FREE ENERGY PREDICTED BY IDOCK:   -6.79 KCAL/MOL
REMARK 923 INTER-LIGAND FREE ENERGY PREDICTED BY IDOCK:   -6.29 KCAL/MOL
REMARK 924 INTRA-LIGAND FREE ENERGY PREDICTED BY IDOCK:   -0.49 KCAL/MOL
REMARK 927      BINDING AFFINITY PREDICTED BY RF-SCORE:    0.00 PKD
ROOT
HETATM    1  C   UNL     1      -7.623   6.909  71.160  1.00  0.00    -0.087 C  
HETATM    2  N   UNL     1      -8.865   7.007  70.413  1.00  0.00    -0.154 N  
HETATM    3  C   UNL     1      -9.388   8.293  70.245  1.00  0.00    -0.159 C  
HETATM    4  C   UNL     1      -9.223   5.897  69.546  1.00  0.00    -0.135 C  
HETATM    5  O   UNL     1      -8.852   9.271  70.766  1.00  0.00    -0.222 OA 
ENDROOT
BRANCH   3   6
HETATM    6  C   UNL     1     -10.663   8.407  69.408  1.00  0.00    -0.162 C  
BRANCH   6   7
HETATM    7  C   UNL     1     -10.560   9.504  68.398  1.00  0.00    -0.219 A  
HETATM    8  C   UNL     1     -10.994  10.826  68.398  1.00  0.00    -0.248 A  
HETATM    9  N   UNL     1     -10.784  11.402  67.162  1.00  0.00    -0.236 NA 
HETATM   10  N   UNL     1      -9.946   9.331  67.168  1.00  0.00    -0.200 NA 
HETATM   11  C   UNL     1     -10.155  10.499  66.447  1.00  0.00    -0.228 A  
HETATM   12  C   UNL     1      -9.249   8.233  66.653  1.00  0.00    -0.179 A  
HETATM   13  C   UNL     1      -7.989   7.144  64.799  1.00  0.00    -0.122 C  
HETATM   14  C   UNL     1      -9.671  10.536  65.110  1.00  0.00    -0.341 A  
HETATM   15  C   UNL     1      -8.766   8.274  65.396  1.00  0.00    -0.147 A  
HETATM   16  C   UNL     1      -9.010   9.476  64.600  1.00  0.00    -0.266 A  
BRANCH   8  17
HETATM   17  C   UNL     1     -11.660  11.536  69.484  1.00  0.00    -0.400 A  
HETATM   18  C   UNL     1     -12.345  13.647  70.491  1.00  0.00    -0.425 A  
HETATM   19  C   UNL     1     -13.040  12.969  71.499  1.00  0.00    -0.400 A  
HETATM   20  C   UNL     1     -12.985  11.574  71.530  1.00  0.00    -0.485 A  
HETATM   21  C   UNL     1     -12.288  10.871  70.543  1.00  0.00    -0.463 A  
HETATM   22  C   UNL     1     -11.665  12.937  69.494  1.00  0.00    -0.387 A  
HETATM   23  C   UNL     1     -13.812  13.731  72.534  1.00  0.00    -0.626 C  
ENDBRANCH   8  17
ENDBRANCH   6   7
ENDBRANCH   3   6
TORSDOF 3
ENDMDL
MODEL       72
REMARK 921   NORMALIZED FREE ENERGY PREDICTED BY IDOCK:   -5.05 KCAL/MOL
REMARK 922        TOTAL FREE ENERGY PREDICTED BY IDOCK:   -6.78 KCAL/MOL
REMARK 923 INTER-LIGAND FREE ENERGY PREDICTED BY IDOCK:   -6.51 KCAL/MOL
REMARK 924 INTRA-LIGAND FREE ENERGY PREDICTED BY IDOCK:   -0.26 KCAL/MOL
REMARK 927      BINDING AFFINITY PREDICTED BY RF-SCORE:    0.00 PKD
ROOT
HETATM    1  C   UNL     1     -13.825   8.684  72.305  1.00  0.00    -0.403 C  
HETATM    2  N   UNL     1     -12.483   8.836  71.771  1.00  0.00    -0.328 N  
HETATM    3  C   UNL     1     -12.266   9.941  70.944  1.00  0.00    -0.328 C  
HETATM    4  C   UNL     1     -11.402   8.142  72.451  1.00  0.00    -0.391 C  
HETATM    5  O   UNL     1     -13.187  10.698  70.637  1.00  0.00    -0.266 OA 
ENDROOT
BRANCH   3   6
HETATM    6  C   UNL     1     -10.839  10.138  70.428  1.00  0.00    -0.365 C  
BRANCH   6   7
HETATM    7  C   UNL     1     -10.815  10.351  68.949  1.00  0.00    -0.236 A  
HETATM    8  C   UNL     1     -10.596   9.489  67.878  1.00  0.00    -0.244 A  
HETATM    9  N   UNL     1     -10.534  10.197  66.696  1.00  0.00    -0.212 NA 
HETATM   10  N   UNL     1     -11.028  11.591  68.370  1.00  0.00    -0.204 NA 
HETATM   11  C   UNL     1     -10.799  11.444  67.008  1.00  0.00    -0.282 A  
HETATM   12  C   UNL     1     -11.385  12.811  68.954  1.00  0.00    -0.296 A  
HETATM   13  C   UNL     1     -11.902  15.240  68.750  1.00  0.00    -0.332 C  
HETATM   14  C   UNL     1     -10.889  12.612  66.201  1.00  0.00    -0.301 A  
HETATM   15  C   UNL     1     -11.498  13.914  68.189  1.00  0.00    -0.346 A  
HETATM   16  C   UNL     1     -11.219  13.795  66.758  1.00  0.00    -0.327 A  
BRANCH   8  17
HETATM   17  C   UNL     1     -10.372   8.049  67.935  1.00  0.00    -0.282 A  
HETATM   18  C   UNL     1     -10.187   5.914  66.773  1.00  0.00    -0.269 A  
HETATM   19  C   UNL     1      -9.827   5.271  67.963  1.00  0.00    -0.193 A  
HETATM   20  C   UNL     1      -9.807   6.010  69.147  1.00  0.00    -0.185 A  
HETATM   21  C   UNL     1     -10.093   7.379  69.131  1.00  0.00    -0.189 A  
HETATM   22  C   UNL     1     -10.453   7.290  66.760  1.00  0.00    -0.311 A  
HETATM   23  C   UNL     1      -9.489   3.810  67.963  1.00  0.00    -0.221 C  
ENDBRANCH   8  17
ENDBRANCH   6   7
ENDBRANCH   3   6
TORSDOF 3
ENDMDL
MODEL       73
REMARK 921   NORMALIZED FREE ENERGY PREDICTED BY IDOCK:   -5.04 KCAL/MOL
REMARK 922        TOTAL FREE ENERGY PREDICTED BY IDOCK:   -6.76 KCAL/MOL
REMARK 923 INTER-LIGAND FREE ENERGY PREDICTED BY IDOCK:   -6.22 KCAL/MOL
REMARK 924 INTRA-LIGAND FREE ENERGY PREDICTED BY IDOCK:   -0.55 KCAL/MOL
REMARK 927      BINDING AFFINITY PREDICTED BY RF-SCORE:    0.00 PKD
ROOT
HETATM    1  C   UNL     1      -6.866   9.357  68.004  1.00  0.00    -0.074 C  
HETATM    2  N   UNL     1      -8.310   9.323  67.846  1.00  0.00    -0.116 N  
HETATM    3  C   UNL     1      -9.056  10.006  68.812  1.00  0.00    -0.148 C  
HETATM    4  C   UNL     1      -8.839   9.000  66.532  1.00  0.00    -0.135 C  
HETATM    5  O   UNL     1      -8.510  10.542  69.776  1.00  0.00    -0.076 OA 
ENDROOT
BRANCH   3   6
HETATM    6  C   UNL     1     -10.572  10.023  68.615  1.00  0.00    -0.239 C  
BRANCH   6   7
HETATM    7  C   UNL     1     -11.290  10.246  69.907  1.00  0.00    -0.290 A  
HETATM    8  C   UNL     1     -11.603   9.400  70.967  1.00  0.00    -0.330 A  
HETATM    9  N   UNL     1     -12.410  10.048  71.878  1.00  0.00    -0.335 NA 
HETATM   10  N   UNL     1     -11.814  11.476  70.267  1.00  0.00    -0.350 NA 
HETATM   11  C   UNL     1     -12.520  11.283  71.447  1.00  0.00    -0.287 A  
HETATM   12  C   UNL     1     -11.724  12.718  69.629  1.00  0.00    -0.302 A  
HETATM   13  C   UNL     1     -12.277  15.146  69.529  1.00  0.00    -0.268 C  
HETATM   14  C   UNL     1     -13.214  12.403  71.984  1.00  0.00    -0.514 A  
HETATM   15  C   UNL     1     -12.358  13.787  70.149  1.00  0.00    -0.390 A  
HETATM   16  C   UNL     1     -13.145  13.600  71.367  1.00  0.00    -0.396 A  
BRANCH   8  17
HETATM   17  C   UNL     1     -11.233   7.997  71.116  1.00  0.00    -0.287 A  
HETATM   18  C   UNL     1     -10.829   5.821  70.095  1.00  0.00    -0.383 A  
HETATM   19  C   UNL     1     -10.409   5.296  71.322  1.00  0.00    -0.292 A  
HETATM   20  C   UNL     1     -10.467   6.109  72.456  1.00  0.00    -0.228 A  
HETATM   21  C   UNL     1     -10.891   7.438  72.352  1.00  0.00    -0.305 A  
HETATM   22  C   UNL     1     -11.234   7.158  69.994  1.00  0.00    -0.271 A  
HETATM   23  C   UNL     1      -9.923   3.880  71.416  1.00  0.00    -0.198 C  
ENDBRANCH   8  17
ENDBRANCH   6   7
ENDBRANCH   3   6
TORSDOF 3
ENDMDL
MODEL       74
REMARK 921   NORMALIZED FREE ENERGY PREDICTED BY IDOCK:   -5.02 KCAL/MOL
REMARK 922        TOTAL FREE ENERGY PREDICTED BY IDOCK:   -6.75 KCAL/MOL
REMARK 923 INTER-LIGAND FREE ENERGY PREDICTED BY IDOCK:   -6.16 KCAL/MOL
REMARK 924 INTRA-LIGAND FREE ENERGY PREDICTED BY IDOCK:   -0.59 KCAL/MOL
REMARK 927      BINDING AFFINITY PREDICTED BY RF-SCORE:    0.00 PKD
ROOT
HETATM    1  C   UNL     1      -6.555  12.235  67.142  1.00  0.00    -0.109 C  
HETATM    2  N   UNL     1      -7.111  13.464  67.682  1.00  0.00    -0.152 N  
HETATM    3  C   UNL     1      -8.500  13.502  67.832  1.00  0.00    -0.179 C  
HETATM    4  C   UNL     1      -6.219  14.344  68.418  1.00  0.00    -0.103 C  
HETATM    5  O   UNL     1      -9.207  12.566  67.459  1.00  0.00    -0.176 OA 
ENDROOT
BRANCH   3   6
HETATM    6  C   UNL     1      -9.084  14.770  68.457  1.00  0.00    -0.187 C  
BRANCH   6   7
HETATM    7  C   UNL     1      -9.294  15.839  67.433  1.00  0.00    -0.210 A  
HETATM    8  C   UNL     1      -9.952  15.850  66.207  1.00  0.00    -0.298 A  
HETATM    9  N   UNL     1      -9.744  17.051  65.560  1.00  0.00    -0.486 NA 
HETATM   10  N   UNL     1      -8.796  17.123  67.581  1.00  0.00    -0.216 NA 
HETATM   11  C   UNL     1      -9.059  17.796  66.395  1.00  0.00    -0.234 A  
HETATM   12  C   UNL     1      -8.127  17.713  68.659  1.00  0.00    -0.269 A  
HETATM   13  C   UNL     1      -6.994  19.680  69.689  1.00  0.00    -0.259 C  
HETATM   14  C   UNL     1      -8.574  19.128  66.279  1.00  0.00    -0.303 A  
HETATM   15  C   UNL     1      -7.690  18.984  68.563  1.00  0.00    -0.368 A  
HETATM   16  C   UNL     1      -7.916  19.701  67.308  1.00  0.00    -0.314 A  
BRANCH   8  17
HETATM   17  C   UNL     1     -10.699  14.757  65.596  1.00  0.00    -0.345 A  
HETATM   18  C   UNL     1     -12.761  13.467  65.433  1.00  0.00    -0.484 A  
HETATM   19  C   UNL     1     -12.242  12.727  64.364  1.00  0.00    -0.499 A  
HETATM   20  C   UNL     1     -10.927  12.963  63.960  1.00  0.00    -0.447 A  
HETATM   21  C   UNL     1     -10.162  13.955  64.582  1.00  0.00    -0.278 A  
HETATM   22  C   UNL     1     -11.997  14.473  66.040  1.00  0.00    -0.319 A  
HETATM   23  C   UNL     1     -13.082  11.689  63.682  1.00  0.00     0.080 C  
ENDBRANCH   8  17
ENDBRANCH   6   7
ENDBRANCH   3   6
TORSDOF 3
ENDMDL
MODEL       75
REMARK 921   NORMALIZED FREE ENERGY PREDICTED BY IDOCK:   -5.01 KCAL/MOL
REMARK 922        TOTAL FREE ENERGY PREDICTED BY IDOCK:   -6.73 KCAL/MOL
REMARK 923 INTER-LIGAND FREE ENERGY PREDICTED BY IDOCK:   -6.27 KCAL/MOL
REMARK 924 INTRA-LIGAND FREE ENERGY PREDICTED BY IDOCK:   -0.46 KCAL/MOL
REMARK 927      BINDING AFFINITY PREDICTED BY RF-SCORE:    0.00 PKD
ROOT
HETATM    1  C   UNL     1      -9.346   5.534  66.208  1.00  0.00    -0.156 C  
HETATM    2  N   UNL     1      -8.828   6.580  67.073  1.00  0.00    -0.115 N  
HETATM    3  C   UNL     1      -9.728   7.587  67.435  1.00  0.00    -0.159 C  
HETATM    4  C   UNL     1      -7.625   6.293  67.836  1.00  0.00    -0.102 C  
HETATM    5  O   UNL     1     -10.872   7.612  66.982  1.00  0.00    -0.334 OA 
ENDROOT
BRANCH   3   6
HETATM    6  C   UNL     1      -9.203   8.657  68.394  1.00  0.00    -0.138 C  
BRANCH   6   7
HETATM    7  C   UNL     1     -10.187   8.950  69.480  1.00  0.00    -0.204 A  
HETATM    8  C   UNL     1     -11.072  10.003  69.688  1.00  0.00    -0.259 A  
HETATM    9  N   UNL     1     -11.674   9.890  70.925  1.00  0.00    -0.334 NA 
HETATM   10  N   UNL     1     -10.371   8.111  70.567  1.00  0.00    -0.200 NA 
HETATM   11  C   UNL     1     -11.248   8.756  71.430  1.00  0.00    -0.292 A  
HETATM   12  C   UNL     1      -9.816   6.857  70.844  1.00  0.00    -0.185 A  
HETATM   13  C   UNL     1      -9.571   4.881  72.342  1.00  0.00    -0.183 C  
HETATM   14  C   UNL     1     -11.540   8.113  72.664  1.00  0.00    -0.441 A  
HETATM   15  C   UNL     1     -10.111   6.233  72.001  1.00  0.00    -0.205 A  
HETATM   16  C   UNL     1     -10.997   6.911  72.946  1.00  0.00    -0.315 A  
BRANCH   8  17
HETATM   17  C   UNL     1     -11.316  11.140  68.807  1.00  0.00    -0.342 A  
HETATM   18  C   UNL     1     -11.486  12.034  66.546  1.00  0.00    -0.413 A  
HETATM   19  C   UNL     1     -11.895  13.276  67.042  1.00  0.00    -0.442 A  
HETATM   20  C   UNL     1     -11.948  13.464  68.425  1.00  0.00    -0.359 A  
HETATM   21  C   UNL     1     -11.644  12.410  69.293  1.00  0.00    -0.379 A  
HETATM   22  C   UNL     1     -11.203  10.977  67.420  1.00  0.00    -0.355 A  
HETATM   23  C   UNL     1     -12.251  14.389  66.102  1.00  0.00    -0.358 C  
ENDBRANCH   8  17
ENDBRANCH   6   7
ENDBRANCH   3   6
TORSDOF 3
ENDMDL
MODEL       76
REMARK 921   NORMALIZED FREE ENERGY PREDICTED BY IDOCK:   -5.00 KCAL/MOL
REMARK 922        TOTAL FREE ENERGY PREDICTED BY IDOCK:   -6.72 KCAL/MOL
REMARK 923 INTER-LIGAND FREE ENERGY PREDICTED BY IDOCK:   -5.77 KCAL/MOL
REMARK 924 INTRA-LIGAND FREE ENERGY PREDICTED BY IDOCK:   -0.95 KCAL/MOL
REMARK 927      BINDING AFFINITY PREDICTED BY RF-SCORE:    0.00 PKD
ROOT
HETATM    1  C   UNL     1      -5.926   9.222  67.731  1.00  0.00    -0.053 C  
HETATM    2  N   UNL     1      -6.678  10.213  68.481  1.00  0.00    -0.057 N  
HETATM    3  C   UNL     1      -7.510  11.054  67.737  1.00  0.00    -0.094 C  
HETATM    4  C   UNL     1      -6.865   9.985  69.904  1.00  0.00    -0.108 C  
HETATM    5  O   UNL     1      -7.542  10.994  66.508  1.00  0.00    -0.139 OA 
ENDROOT
BRANCH   3   6
HETATM    6  C   UNL     1      -8.349  12.058  68.530  1.00  0.00    -0.104 C  
BRANCH   6   7
HETATM    7  C   UNL     1      -9.785  12.019  68.119  1.00  0.00    -0.199 A  
HETATM    8  C   UNL     1     -10.813  11.118  68.379  1.00  0.00    -0.205 A  
HETATM    9  N   UNL     1     -11.937  11.447  67.650  1.00  0.00    -0.626 NA 
HETATM   10  N   UNL     1     -10.359  12.992  67.318  1.00  0.00    -0.238 NA 
HETATM   11  C   UNL     1     -11.649  12.567  67.030  1.00  0.00    -0.368 A  
HETATM   12  C   UNL     1      -9.824  14.188  66.826  1.00  0.00    -0.272 A  
HETATM   13  C   UNL     1     -10.060  16.274  65.484  1.00  0.00    -0.276 C  
HETATM   14  C   UNL     1     -12.424  13.378  66.154  1.00  0.00    -0.389 A  
HETATM   15  C   UNL     1     -10.565  14.972  66.018  1.00  0.00    -0.329 A  
HETATM   16  C   UNL     1     -11.911  14.525  65.664  1.00  0.00    -0.311 A  
BRANCH   8  17
HETATM   17  C   UNL     1     -10.754   9.929  69.222  1.00  0.00    -0.247 A  
HETATM   18  C   UNL     1     -11.063   8.900  71.409  1.00  0.00    -0.376 A  
HETATM   19  C   UNL     1     -10.774   7.636  70.882  1.00  0.00    -0.243 A  
HETATM   20  C   UNL     1     -10.410   7.536  69.538  1.00  0.00    -0.216 A  
HETATM   21  C   UNL     1     -10.385   8.674  68.725  1.00  0.00    -0.228 A  
HETATM   22  C   UNL     1     -11.055  10.033  70.586  1.00  0.00    -0.408 A  
HETATM   23  C   UNL     1     -10.837   6.417  71.754  1.00  0.00    -0.283 C  
ENDBRANCH   8  17
ENDBRANCH   6   7
ENDBRANCH   3   6
TORSDOF 3
ENDMDL
MODEL       77
REMARK 921   NORMALIZED FREE ENERGY PREDICTED BY IDOCK:   -4.99 KCAL/MOL
REMARK 922        TOTAL FREE ENERGY PREDICTED BY IDOCK:   -6.71 KCAL/MOL
REMARK 923 INTER-LIGAND FREE ENERGY PREDICTED BY IDOCK:   -5.79 KCAL/MOL
REMARK 924 INTRA-LIGAND FREE ENERGY PREDICTED BY IDOCK:   -0.93 KCAL/MOL
REMARK 927      BINDING AFFINITY PREDICTED BY RF-SCORE:    0.00 PKD
ROOT
HETATM    1  C   UNL     1     -12.053  14.527  71.302  1.00  0.00    -0.354 C  
HETATM    2  N   UNL     1     -11.746  14.338  69.895  1.00  0.00    -0.294 N  
HETATM    3  C   UNL     1     -11.804  13.025  69.418  1.00  0.00    -0.322 C  
HETATM    4  C   UNL     1     -11.846  15.494  69.019  1.00  0.00    -0.354 C  
HETATM    5  O   UNL     1     -12.035  12.082  70.176  1.00  0.00    -0.333 OA 
ENDROOT
BRANCH   3   6
HETATM    6  C   UNL     1     -11.541  12.830  67.924  1.00  0.00    -0.400 C  
BRANCH   6   7
HETATM    7  C   UNL     1     -10.131  12.407  67.666  1.00  0.00    -0.198 A  
HETATM    8  C   UNL     1      -8.939  13.118  67.568  1.00  0.00    -0.197 A  
HETATM    9  N   UNL     1      -7.912  12.285  67.173  1.00  0.00    -0.173 NA 
HETATM   10  N   UNL     1      -9.774  11.085  67.457  1.00  0.00    -0.171 NA 
HETATM   11  C   UNL     1      -8.428  11.080  67.117  1.00  0.00    -0.137 A  
HETATM   12  C   UNL     1     -10.546   9.920  67.529  1.00  0.00    -0.275 A  
HETATM   13  C   UNL     1     -10.752   7.444  67.326  1.00  0.00    -0.379 C  
HETATM   14  C   UNL     1      -7.843   9.827  66.784  1.00  0.00    -0.102 A  
HETATM   15  C   UNL     1      -9.988   8.727  67.240  1.00  0.00    -0.281 A  
HETATM   16  C   UNL     1      -8.583   8.700  66.837  1.00  0.00    -0.124 A  
BRANCH   8  17
HETATM   17  C   UNL     1      -8.747  14.551  67.760  1.00  0.00    -0.174 A  
HETATM   18  C   UNL     1      -8.013  16.392  69.179  1.00  0.00    -0.204 A  
HETATM   19  C   UNL     1      -8.240  17.309  68.147  1.00  0.00    -0.231 A  
HETATM   20  C   UNL     1      -8.784  16.850  66.946  1.00  0.00    -0.248 A  
HETATM   21  C   UNL     1      -9.049  15.488  66.765  1.00  0.00    -0.282 A  
HETATM   22  C   UNL     1      -8.261  15.027  68.985  1.00  0.00    -0.187 A  
HETATM   23  C   UNL     1      -7.921  18.762  68.340  1.00  0.00    -0.365 C  
ENDBRANCH   8  17
ENDBRANCH   6   7
ENDBRANCH   3   6
TORSDOF 3
ENDMDL
MODEL       78
REMARK 921   NORMALIZED FREE ENERGY PREDICTED BY IDOCK:   -4.98 KCAL/MOL
REMARK 922        TOTAL FREE ENERGY PREDICTED BY IDOCK:   -6.69 KCAL/MOL
REMARK 923 INTER-LIGAND FREE ENERGY PREDICTED BY IDOCK:   -6.22 KCAL/MOL
REMARK 924 INTRA-LIGAND FREE ENERGY PREDICTED BY IDOCK:   -0.47 KCAL/MOL
REMARK 927      BINDING AFFINITY PREDICTED BY RF-SCORE:    0.00 PKD
ROOT
HETATM    1  C   UNL     1      -8.504  10.968  66.138  1.00  0.00    -0.168 C  
HETATM    2  N   UNL     1      -7.964  11.902  67.110  1.00  0.00    -0.166 N  
HETATM    3  C   UNL     1      -8.679  13.089  67.293  1.00  0.00    -0.209 C  
HETATM    4  C   UNL     1      -7.039  11.385  68.104  1.00  0.00    -0.075 C  
HETATM    5  O   UNL     1      -9.671  13.347  66.611  1.00  0.00    -0.260 OA 
ENDROOT
BRANCH   3   6
HETATM    6  C   UNL     1      -8.147  14.048  68.359  1.00  0.00    -0.148 C  
BRANCH   6   7
HETATM    7  C   UNL     1      -8.816  15.382  68.281  1.00  0.00    -0.176 A  
HETATM    8  C   UNL     1     -10.001  15.873  68.821  1.00  0.00    -0.220 A  
HETATM    9  N   UNL     1     -10.261  17.140  68.340  1.00  0.00    -0.317 NA 
HETATM   10  N   UNL     1      -8.286  16.442  67.564  1.00  0.00    -0.148 NA 
HETATM   11  C   UNL     1      -9.227  17.463  67.598  1.00  0.00    -0.234 A  
HETATM   12  C   UNL     1      -7.066  16.555  66.888  1.00  0.00    -0.227 A  
HETATM   13  C   UNL     1      -5.476  17.876  65.496  1.00  0.00    -0.141 C  
HETATM   14  C   UNL     1      -8.935  18.646  66.865  1.00  0.00    -0.296 A  
HETATM   15  C   UNL     1      -6.774  17.684  66.215  1.00  0.00    -0.317 A  
HETATM   16  C   UNL     1      -7.767  18.757  66.198  1.00  0.00    -0.274 A  
BRANCH   8  17
HETATM   17  C   UNL     1     -10.924  15.174  69.707  1.00  0.00    -0.293 A  
HETATM   18  C   UNL     1     -12.432  15.229  71.621  1.00  0.00    -0.433 A  
HETATM   19  C   UNL     1     -12.815  13.903  71.388  1.00  0.00    -0.439 A  
HETATM   20  C   UNL     1     -12.199  13.198  70.352  1.00  0.00    -0.389 A  
HETATM   21  C   UNL     1     -11.253  13.824  69.535  1.00  0.00    -0.221 A  
HETATM   22  C   UNL     1     -11.498  15.857  70.787  1.00  0.00    -0.437 A  
HETATM   23  C   UNL     1     -13.856  13.251  72.248  1.00  0.00    -0.637 C  
ENDBRANCH   8  17
ENDBRANCH   6   7
ENDBRANCH   3   6
TORSDOF 3
ENDMDL
MODEL       79
REMARK 921   NORMALIZED FREE ENERGY PREDICTED BY IDOCK:   -4.96 KCAL/MOL
REMARK 922        TOTAL FREE ENERGY PREDICTED BY IDOCK:   -6.68 KCAL/MOL
REMARK 923 INTER-LIGAND FREE ENERGY PREDICTED BY IDOCK:   -6.03 KCAL/MOL
REMARK 924 INTRA-LIGAND FREE ENERGY PREDICTED BY IDOCK:   -0.65 KCAL/MOL
REMARK 927      BINDING AFFINITY PREDICTED BY RF-SCORE:    0.00 PKD
ROOT
HETATM    1  C   UNL     1     -12.615  14.526  72.079  1.00  0.00    -0.325 C  
HETATM    2  N   UNL     1     -12.518  13.753  70.854  1.00  0.00    -0.362 N  
HETATM    3  C   UNL     1     -11.990  14.416  69.742  1.00  0.00    -0.332 C  
HETATM    4  C   UNL     1     -12.537  12.304  70.965  1.00  0.00    -0.257 C  
HETATM    5  O   UNL     1     -11.693  15.609  69.794  1.00  0.00    -0.314 OA 
ENDROOT
BRANCH   3   6
HETATM    6  C   UNL     1     -11.830  13.587  68.466  1.00  0.00    -0.398 C  
BRANCH   6   7
HETATM    7  C   UNL     1     -10.391  13.401  68.110  1.00  0.00    -0.247 A  
HETATM    8  C   UNL     1      -9.447  14.248  67.536  1.00  0.00    -0.209 A  
HETATM    9  N   UNL     1      -8.280  13.561  67.275  1.00  0.00    -0.175 NA 
HETATM   10  N   UNL     1      -9.717  12.209  68.322  1.00  0.00    -0.214 NA 
HETATM   11  C   UNL     1      -8.458  12.352  67.753  1.00  0.00    -0.169 A  
HETATM   12  C   UNL     1     -10.139  11.033  68.952  1.00  0.00    -0.199 A  
HETATM   13  C   UNL     1      -9.698   8.694  69.690  1.00  0.00    -0.179 C  
HETATM   14  C   UNL     1      -7.597  11.221  67.784  1.00  0.00    -0.104 A  
HETATM   15  C   UNL     1      -9.315   9.969  69.007  1.00  0.00    -0.183 A  
HETATM   16  C   UNL     1      -8.000  10.078  68.377  1.00  0.00    -0.097 A  
BRANCH   8  17
HETATM   17  C   UNL     1      -9.626  15.646  67.163  1.00  0.00    -0.224 A  
HETATM   18  C   UNL     1     -10.537  17.299  65.620  1.00  0.00    -0.173 A  
HETATM   19  C   UNL     1     -10.110  18.343  66.449  1.00  0.00    -0.420 A  
HETATM   20  C   UNL     1      -9.383  18.033  67.600  1.00  0.00    -0.259 A  
HETATM   21  C   UNL     1      -9.132  16.700  67.940  1.00  0.00    -0.218 A  
HETATM   22  C   UNL     1     -10.299  15.965  65.977  1.00  0.00    -0.363 A  
HETATM   23  C   UNL     1     -10.414  19.767  66.093  1.00  0.00    -0.613 C  
ENDBRANCH   8  17
ENDBRANCH   6   7
ENDBRANCH   3   6
TORSDOF 3
ENDMDL
MODEL       80
REMARK 921   NORMALIZED FREE ENERGY PREDICTED BY IDOCK:   -4.96 KCAL/MOL
REMARK 922        TOTAL FREE ENERGY PREDICTED BY IDOCK:   -6.67 KCAL/MOL
REMARK 923 INTER-LIGAND FREE ENERGY PREDICTED BY IDOCK:   -5.87 KCAL/MOL
REMARK 924 INTRA-LIGAND FREE ENERGY PREDICTED BY IDOCK:   -0.80 KCAL/MOL
REMARK 927      BINDING AFFINITY PREDICTED BY RF-SCORE:    0.00 PKD
ROOT
HETATM    1  C   UNL     1      -8.545  14.931  67.284  1.00  0.00    -0.213 C  
HETATM    2  N   UNL     1      -9.680  14.053  67.058  1.00  0.00    -0.248 N  
HETATM    3  C   UNL     1      -9.601  12.778  67.627  1.00  0.00    -0.192 C  
HETATM    4  C   UNL     1     -10.942  14.663  66.677  1.00  0.00    -0.323 C  
HETATM    5  O   UNL     1      -8.590  12.409  68.225  1.00  0.00    -0.177 OA 
ENDROOT
BRANCH   3   6
HETATM    6  C   UNL     1     -10.819  11.872  67.441  1.00  0.00    -0.289 C  
BRANCH   6   7
HETATM    7  C   UNL     1     -11.087  11.056  68.664  1.00  0.00    -0.240 A  
HETATM    8  C   UNL     1     -10.765   9.747  69.009  1.00  0.00    -0.217 A  
HETATM    9  N   UNL     1     -11.364   9.403  70.204  1.00  0.00    -0.222 NA 
HETATM   10  N   UNL     1     -11.783  11.550  69.754  1.00  0.00    -0.326 NA 
HETATM   11  C   UNL     1     -11.960  10.490  70.634  1.00  0.00    -0.357 A  
HETATM   12  C   UNL     1     -12.272  12.837  70.005  1.00  0.00    -0.209 A  
HETATM   13  C   UNL     1     -13.493  14.441  71.471  1.00  0.00    -0.443 C  
HETATM   14  C   UNL     1     -12.718  10.738  71.811  1.00  0.00    -0.464 A  
HETATM   15  C   UNL     1     -12.968  13.082  71.133  1.00  0.00    -0.265 A  
HETATM   16  C   UNL     1     -13.205  11.972  72.055  1.00  0.00    -0.481 A  
BRANCH   8  17
HETATM   17  C   UNL     1      -9.985   8.794  68.228  1.00  0.00    -0.202 A  
HETATM   18  C   UNL     1      -7.925   7.526  67.928  1.00  0.00    -0.119 A  
HETATM   19  C   UNL     1      -8.467   6.861  66.823  1.00  0.00    -0.118 A  
HETATM   20  C   UNL     1      -9.744   7.215  66.385  1.00  0.00    -0.139 A  
HETATM   21  C   UNL     1     -10.484   8.183  67.072  1.00  0.00    -0.396 A  
HETATM   22  C   UNL     1      -8.678   8.480  68.624  1.00  0.00    -0.139 A  
HETATM   23  C   UNL     1      -7.678   5.800  66.113  1.00  0.00    -0.095 C  
ENDBRANCH   8  17
ENDBRANCH   6   7
ENDBRANCH   3   6
TORSDOF 3
ENDMDL
MODEL       81
REMARK 921   NORMALIZED FREE ENERGY PREDICTED BY IDOCK:   -4.93 KCAL/MOL
REMARK 922        TOTAL FREE ENERGY PREDICTED BY IDOCK:   -6.63 KCAL/MOL
REMARK 923 INTER-LIGAND FREE ENERGY PREDICTED BY IDOCK:   -6.11 KCAL/MOL
REMARK 924 INTRA-LIGAND FREE ENERGY PREDICTED BY IDOCK:   -0.52 KCAL/MOL
REMARK 927      BINDING AFFINITY PREDICTED BY RF-SCORE:    0.00 PKD
ROOT
HETATM    1  C   UNL     1      -9.738   4.786  67.113  1.00  0.00    -0.184 C  
HETATM    2  N   UNL     1      -9.146   5.767  68.006  1.00  0.00    -0.111 N  
HETATM    3  C   UNL     1     -10.036   6.515  68.784  1.00  0.00    -0.143 C  
HETATM    4  C   UNL     1      -7.746   5.604  68.358  1.00  0.00    -0.092 C  
HETATM    5  O   UNL     1     -11.254   6.387  68.658  1.00  0.00    -0.329 OA 
ENDROOT
BRANCH   3   6
HETATM    6  C   UNL     1      -9.414   7.506  69.769  1.00  0.00    -0.156 C  
BRANCH   6   7
HETATM    7  C   UNL     1     -10.419   8.000  70.758  1.00  0.00    -0.206 A  
HETATM    8  C   UNL     1     -10.948   7.442  71.918  1.00  0.00    -0.233 A  
HETATM    9  N   UNL     1     -11.962   8.236  72.414  1.00  0.00    -0.383 NA 
HETATM   10  N   UNL     1     -11.043   9.230  70.638  1.00  0.00    -0.258 NA 
HETATM   11  C   UNL     1     -12.000   9.296  71.642  1.00  0.00    -0.378 A  
HETATM   12  C   UNL     1     -10.837  10.260  69.713  1.00  0.00    -0.287 A  
HETATM   13  C   UNL     1     -11.412  12.515  68.821  1.00  0.00    -0.353 C  
HETATM   14  C   UNL     1     -12.827  10.452  71.680  1.00  0.00    -0.579 A  
HETATM   15  C   UNL     1     -11.601  11.369  69.763  1.00  0.00    -0.407 A  
HETATM   16  C   UNL     1     -12.646  11.444  70.784  1.00  0.00    -0.409 A  
BRANCH   8  17
HETATM   17  C   UNL     1     -10.589   6.168  72.530  1.00  0.00    -0.244 A  
HETATM   18  C   UNL     1     -10.087   4.879  74.537  1.00  0.00    -0.273 A  
HETATM   19  C   UNL     1     -10.009   3.699  73.788  1.00  0.00    -0.167 A  
HETATM   20  C   UNL     1     -10.156   3.772  72.402  1.00  0.00    -0.237 A  
HETATM   21  C   UNL     1     -10.426   4.996  71.782  1.00  0.00    -0.246 A  
HETATM   22  C   UNL     1     -10.377   6.100  73.913  1.00  0.00    -0.302 A  
HETATM   23  C   UNL     1      -9.753   2.386  74.466  1.00  0.00    -0.132 C  
ENDBRANCH   8  17
ENDBRANCH   6   7
ENDBRANCH   3   6
TORSDOF 3
ENDMDL
MODEL       82
REMARK 921   NORMALIZED FREE ENERGY PREDICTED BY IDOCK:   -4.91 KCAL/MOL
REMARK 922        TOTAL FREE ENERGY PREDICTED BY IDOCK:   -6.61 KCAL/MOL
REMARK 923 INTER-LIGAND FREE ENERGY PREDICTED BY IDOCK:   -5.89 KCAL/MOL
REMARK 924 INTRA-LIGAND FREE ENERGY PREDICTED BY IDOCK:   -0.72 KCAL/MOL
REMARK 927      BINDING AFFINITY PREDICTED BY RF-SCORE:    0.00 PKD
ROOT
HETATM    1  C   UNL     1      -6.066   8.662  69.038  1.00  0.00    -0.043 C  
HETATM    2  N   UNL     1      -7.479   8.385  68.847  1.00  0.00    -0.089 N  
HETATM    3  C   UNL     1      -8.365   9.403  69.211  1.00  0.00    -0.131 C  
HETATM    4  C   UNL     1      -7.841   7.325  67.921  1.00  0.00    -0.118 C  
HETATM    5  O   UNL     1      -7.961  10.444  69.729  1.00  0.00    -0.150 OA 
ENDROOT
BRANCH   3   6
HETATM    6  C   UNL     1      -9.850   9.138  68.956  1.00  0.00    -0.176 C  
BRANCH   6   7
HETATM    7  C   UNL     1     -10.714   9.894  69.911  1.00  0.00    -0.280 A  
HETATM    8  C   UNL     1     -11.273   9.559  71.141  1.00  0.00    -0.376 A  
HETATM    9  N   UNL     1     -12.121  10.559  71.573  1.00  0.00    -0.290 NA 
HETATM   10  N   UNL     1     -11.135  11.192  69.671  1.00  0.00    -0.250 NA 
HETATM   11  C   UNL     1     -12.022  11.523  70.688  1.00  0.00    -0.292 A  
HETATM   12  C   UNL     1     -10.809  12.069  68.631  1.00  0.00    -0.237 A  
HETATM   13  C   UNL     1     -11.051  14.280  67.507  1.00  0.00    -0.309 C  
HETATM   14  C   UNL     1     -12.648  12.798  70.619  1.00  0.00    -0.248 A  
HETATM   15  C   UNL     1     -11.380  13.288  68.577  1.00  0.00    -0.319 A  
HETATM   16  C   UNL     1     -12.350  13.644  69.612  1.00  0.00    -0.257 A  
BRANCH   8  17
HETATM   17  C   UNL     1     -11.097   8.315  71.882  1.00  0.00    -0.357 A  
HETATM   18  C   UNL     1     -11.672   5.967  72.193  1.00  0.00    -0.335 A  
HETATM   19  C   UNL     1     -10.712   5.842  73.204  1.00  0.00    -0.292 A  
HETATM   20  C   UNL     1      -9.995   6.974  73.594  1.00  0.00    -0.348 A  
HETATM   21  C   UNL     1     -10.201   8.198  72.950  1.00  0.00    -0.341 A  
HETATM   22  C   UNL     1     -11.859   7.191  71.538  1.00  0.00    -0.348 A  
HETATM   23  C   UNL     1     -10.475   4.516  73.865  1.00  0.00    -0.306 C  
ENDBRANCH   8  17
ENDBRANCH   6   7
ENDBRANCH   3   6
TORSDOF 3
ENDMDL
MODEL       83
REMARK 921   NORMALIZED FREE ENERGY PREDICTED BY IDOCK:   -4.86 KCAL/MOL
REMARK 922        TOTAL FREE ENERGY PREDICTED BY IDOCK:   -6.56 KCAL/MOL
REMARK 923 INTER-LIGAND FREE ENERGY PREDICTED BY IDOCK:   -6.49 KCAL/MOL
REMARK 924 INTRA-LIGAND FREE ENERGY PREDICTED BY IDOCK:   -0.06 KCAL/MOL
REMARK 927      BINDING AFFINITY PREDICTED BY RF-SCORE:    0.00 PKD
ROOT
HETATM    1  C   UNL     1     -13.016  11.895  63.127  1.00  0.00     0.131 C  
HETATM    2  N   UNL     1     -11.710  12.433  63.462  1.00  0.00    -0.490 N  
HETATM    3  C   UNL     1     -11.672  13.374  64.496  1.00  0.00    -0.384 C  
HETATM    4  C   UNL     1     -10.540  11.675  63.051  1.00  0.00    -0.157 C  
HETATM    5  O   UNL     1     -12.706  13.767  65.036  1.00  0.00    -0.630 OA 
ENDROOT
BRANCH   3   6
HETATM    6  C   UNL     1     -10.291  13.897  64.892  1.00  0.00    -0.430 C  
BRANCH   6   7
HETATM    7  C   UNL     1     -10.004  13.650  66.337  1.00  0.00    -0.296 A  
HETATM    8  C   UNL     1      -9.860  14.504  67.427  1.00  0.00    -0.227 A  
HETATM    9  N   UNL     1      -9.455  13.798  68.541  1.00  0.00    -0.196 NA 
HETATM   10  N   UNL     1      -9.814  12.379  66.854  1.00  0.00    -0.211 NA 
HETATM   11  C   UNL     1      -9.438  12.536  68.182  1.00  0.00    -0.214 A  
HETATM   12  C   UNL     1      -9.931  11.128  66.239  1.00  0.00    -0.219 A  
HETATM   13  C   UNL     1      -9.785   8.642  66.344  1.00  0.00    -0.333 C  
HETATM   14  C   UNL     1      -9.117  11.359  68.913  1.00  0.00    -0.022 A  
HETATM   15  C   UNL     1      -9.653  10.009  66.937  1.00  0.00    -0.219 A  
HETATM   16  C   UNL     1      -9.213  10.150  68.324  1.00  0.00    -0.130 A  
BRANCH   8  17
HETATM   17  C   UNL     1     -10.016  15.954  67.439  1.00  0.00    -0.239 A  
HETATM   18  C   UNL     1      -9.878  18.062  68.655  1.00  0.00    -0.383 A  
HETATM   19  C   UNL     1     -10.185  18.779  67.494  1.00  0.00    -0.444 A  
HETATM   20  C   UNL     1     -10.472  18.074  66.324  1.00  0.00    -0.340 A  
HETATM   21  C   UNL     1     -10.404  16.677  66.305  1.00  0.00    -0.323 A  
HETATM   22  C   UNL     1      -9.792  16.664  68.626  1.00  0.00    -0.252 A  
HETATM   23  C   UNL     1     -10.223  20.279  67.515  1.00  0.00    -0.486 C  
ENDBRANCH   8  17
ENDBRANCH   6   7
ENDBRANCH   3   6
TORSDOF 3
ENDMDL
MODEL       84
REMARK 921   NORMALIZED FREE ENERGY PREDICTED BY IDOCK:   -4.84 KCAL/MOL
REMARK 922        TOTAL FREE ENERGY PREDICTED BY IDOCK:   -6.53 KCAL/MOL
REMARK 923 INTER-LIGAND FREE ENERGY PREDICTED BY IDOCK:   -6.35 KCAL/MOL
REMARK 924 INTRA-LIGAND FREE ENERGY PREDICTED BY IDOCK:   -0.18 KCAL/MOL
REMARK 927      BINDING AFFINITY PREDICTED BY RF-SCORE:    0.00 PKD
ROOT
HETATM    1  C   UNL     1     -13.474   9.014  72.481  1.00  0.00    -0.429 C  
HETATM    2  N   UNL     1     -12.139   8.800  71.949  1.00  0.00    -0.337 N  
HETATM    3  C   UNL     1     -11.744   9.641  70.906  1.00  0.00    -0.334 C  
HETATM    4  C   UNL     1     -11.186   8.085  72.782  1.00  0.00    -0.382 C  
HETATM    5  O   UNL     1     -12.520  10.468  70.426  1.00  0.00    -0.309 OA 
ENDROOT
BRANCH   3   6
HETATM    6  C   UNL     1     -10.318   9.458  70.384  1.00  0.00    -0.318 C  
BRANCH   6   7
HETATM    7  C   UNL     1     -10.294   8.662  69.120  1.00  0.00    -0.217 A  
HETATM    8  C   UNL     1     -10.331   9.027  67.778  1.00  0.00    -0.246 A  
HETATM    9  N   UNL     1     -10.430   7.908  66.977  1.00  0.00    -0.342 NA 
HETATM   10  N   UNL     1     -10.230   7.278  69.110  1.00  0.00    -0.191 NA 
HETATM   11  C   UNL     1     -10.364   6.878  67.787  1.00  0.00    -0.203 A  
HETATM   12  C   UNL     1     -10.083   6.374  70.168  1.00  0.00    -0.173 A  
HETATM   13  C   UNL     1      -9.908   4.033  71.006  1.00  0.00    -0.230 C  
HETATM   14  C   UNL     1     -10.398   5.480  67.528  1.00  0.00    -0.268 A  
HETATM   15  C   UNL     1     -10.088   5.049  69.923  1.00  0.00    -0.344 A  
HETATM   16  C   UNL     1     -10.271   4.600  68.543  1.00  0.00     0.002 A  
BRANCH   8  17
HETATM   17  C   UNL     1     -10.349  10.379  67.231  1.00  0.00    -0.278 A  
HETATM   18  C   UNL     1     -10.002  11.873  65.337  1.00  0.00    -0.281 A  
HETATM   19  C   UNL     1     -10.479  12.961  66.077  1.00  0.00    -0.290 A  
HETATM   20  C   UNL     1     -10.827  12.763  67.414  1.00  0.00    -0.265 A  
HETATM   21  C   UNL     1     -10.745  11.489  67.985  1.00  0.00    -0.241 A  
HETATM   22  C   UNL     1      -9.941  10.596  65.908  1.00  0.00    -0.312 A  
HETATM   23  C   UNL     1     -10.596  14.316  65.445  1.00  0.00    -0.367 C  
ENDBRANCH   8  17
ENDBRANCH   6   7
ENDBRANCH   3   6
TORSDOF 3
ENDMDL
MODEL       85
REMARK 921   NORMALIZED FREE ENERGY PREDICTED BY IDOCK:   -4.81 KCAL/MOL
REMARK 922        TOTAL FREE ENERGY PREDICTED BY IDOCK:   -6.50 KCAL/MOL
REMARK 923 INTER-LIGAND FREE ENERGY PREDICTED BY IDOCK:   -5.64 KCAL/MOL
REMARK 924 INTRA-LIGAND FREE ENERGY PREDICTED BY IDOCK:   -0.87 KCAL/MOL
REMARK 927      BINDING AFFINITY PREDICTED BY RF-SCORE:    0.00 PKD
ROOT
HETATM    1  C   UNL     1     -13.238  15.327  71.064  1.00  0.00    -0.484 C  
HETATM    2  N   UNL     1     -12.071  14.825  70.359  1.00  0.00    -0.299 N  
HETATM    3  C   UNL     1     -11.153  15.782  69.918  1.00  0.00    -0.331 C  
HETATM    4  C   UNL     1     -11.716  13.428  70.547  1.00  0.00    -0.026 C  
HETATM    5  O   UNL     1     -11.368  16.986  70.064  1.00  0.00     0.263 OA 
ENDROOT
BRANCH   3   6
HETATM    6  C   UNL     1      -9.894  15.253  69.229  1.00  0.00    -0.255 C  
BRANCH   6   7
HETATM    7  C   UNL     1      -9.759  15.795  67.843  1.00  0.00    -0.216 A  
HETATM    8  C   UNL     1      -9.043  16.867  67.319  1.00  0.00    -0.218 A  
HETATM    9  N   UNL     1      -9.357  17.051  65.988  1.00  0.00    -0.497 NA 
HETATM   10  N   UNL     1     -10.413  15.239  66.756  1.00  0.00    -0.287 NA 
HETATM   11  C   UNL     1     -10.169  16.070  65.670  1.00  0.00    -0.386 A  
HETATM   12  C   UNL     1     -11.203  14.088  66.670  1.00  0.00    -0.323 A  
HETATM   13  C   UNL     1     -12.615  12.525  65.337  1.00  0.00    -0.157 C  
HETATM   14  C   UNL     1     -10.802  15.740  64.440  1.00  0.00     0.115 A  
HETATM   15  C   UNL     1     -11.782  13.757  65.500  1.00  0.00    -0.356 A  
HETATM   16  C   UNL     1     -11.577  14.639  64.352  1.00  0.00    -0.315 A  
BRANCH   8  17
HETATM   17  C   UNL     1      -8.139  17.761  68.034  1.00  0.00    -0.243 A  
HETATM   18  C   UNL     1      -7.761  19.887  69.163  1.00  0.00    -0.095 A  
HETATM   19  C   UNL     1      -6.471  19.490  69.532  1.00  0.00    -0.368 A  
HETATM   20  C   UNL     1      -5.997  18.252  69.091  1.00  0.00    -0.225 A  
HETATM   21  C   UNL     1      -6.819  17.409  68.337  1.00  0.00    -0.194 A  
HETATM   22  C   UNL     1      -8.586  19.030  68.425  1.00  0.00    -0.383 A  
HETATM   23  C   UNL     1      -5.610  20.388  70.369  1.00  0.00    -0.357 C  
ENDBRANCH   8  17
ENDBRANCH   6   7
ENDBRANCH   3   6
TORSDOF 3
ENDMDL
MODEL       86
REMARK 921   NORMALIZED FREE ENERGY PREDICTED BY IDOCK:   -4.79 KCAL/MOL
REMARK 922        TOTAL FREE ENERGY PREDICTED BY IDOCK:   -6.47 KCAL/MOL
REMARK 923 INTER-LIGAND FREE ENERGY PREDICTED BY IDOCK:   -5.63 KCAL/MOL
REMARK 924 INTRA-LIGAND FREE ENERGY PREDICTED BY IDOCK:   -0.84 KCAL/MOL
REMARK 927      BINDING AFFINITY PREDICTED BY RF-SCORE:    0.00 PKD
ROOT
HETATM    1  C   UNL     1     -13.080  10.383  71.302  1.00  0.00    -0.399 C  
HETATM    2  N   UNL     1     -11.976  11.019  70.606  1.00  0.00    -0.354 N  
HETATM    3  C   UNL     1     -11.107  10.170  69.914  1.00  0.00    -0.293 C  
HETATM    4  C   UNL     1     -12.093  12.436  70.302  1.00  0.00    -0.297 C  
HETATM    5  O   UNL     1     -11.243   8.947  69.958  1.00  0.00    -0.213 OA 
ENDROOT
BRANCH   3   6
HETATM    6  C   UNL     1      -9.978  10.841  69.130  1.00  0.00    -0.206 C  
BRANCH   6   7
HETATM    7  C   UNL     1      -9.936  10.366  67.714  1.00  0.00    -0.175 A  
HETATM    8  C   UNL     1      -9.358   9.252  67.112  1.00  0.00    -0.132 A  
HETATM    9  N   UNL     1      -9.476   9.331  65.739  1.00  0.00    -0.250 NA 
HETATM   10  N   UNL     1     -10.537  11.059  66.676  1.00  0.00    -0.257 NA 
HETATM   11  C   UNL     1     -10.184  10.410  65.500  1.00  0.00    -0.246 A  
HETATM   12  C   UNL     1     -11.339  12.205  66.701  1.00  0.00    -0.350 A  
HETATM   13  C   UNL     1     -12.670  13.943  65.509  1.00  0.00    -0.536 C  
HETATM   14  C   UNL     1     -10.631  10.984  64.278  1.00  0.00    -0.402 A  
HETATM   15  C   UNL     1     -11.787  12.737  65.546  1.00  0.00    -0.466 A  
HETATM   16  C   UNL     1     -11.393  12.097  64.292  1.00  0.00    -0.426 A  
BRANCH   8  17
HETATM   17  C   UNL     1      -8.643   8.165  67.769  1.00  0.00    -0.131 A  
HETATM   18  C   UNL     1      -6.665   7.380  68.958  1.00  0.00    -0.052 A  
HETATM   19  C   UNL     1      -7.255   6.127  69.162  1.00  0.00    -0.083 A  
HETATM   20  C   UNL     1      -8.513   5.879  68.609  1.00  0.00    -0.111 A  
HETATM   21  C   UNL     1      -9.188   6.883  67.907  1.00  0.00    -0.124 A  
HETATM   22  C   UNL     1      -7.354   8.388  68.271  1.00  0.00    -0.095 A  
HETATM   23  C   UNL     1      -6.538   5.069  69.945  1.00  0.00    -0.036 C  
ENDBRANCH   8  17
ENDBRANCH   6   7
ENDBRANCH   3   6
TORSDOF 3
ENDMDL
MODEL       87
REMARK 921   NORMALIZED FREE ENERGY PREDICTED BY IDOCK:   -4.74 KCAL/MOL
REMARK 922        TOTAL FREE ENERGY PREDICTED BY IDOCK:   -6.42 KCAL/MOL
REMARK 923 INTER-LIGAND FREE ENERGY PREDICTED BY IDOCK:   -5.61 KCAL/MOL
REMARK 924 INTRA-LIGAND FREE ENERGY PREDICTED BY IDOCK:   -0.81 KCAL/MOL
REMARK 927      BINDING AFFINITY PREDICTED BY RF-SCORE:    0.00 PKD
ROOT
HETATM    1  C   UNL     1     -13.213   9.904  70.890  1.00  0.00    -0.244 C  
HETATM    2  N   UNL     1     -11.810   9.909  70.511  1.00  0.00    -0.276 N  
HETATM    3  C   UNL     1     -11.448  10.786  69.485  1.00  0.00    -0.294 C  
HETATM    4  C   UNL     1     -10.850   9.381  71.466  1.00  0.00    -0.328 C  
HETATM    5  O   UNL     1     -12.293  11.461  68.895  1.00  0.00    -0.446 OA 
ENDROOT
BRANCH   3   6
HETATM    6  C   UNL     1      -9.962  10.837  69.125  1.00  0.00    -0.206 C  
BRANCH   6   7
HETATM    7  C   UNL     1      -9.689  10.153  67.824  1.00  0.00    -0.153 A  
HETATM    8  C   UNL     1      -9.790  10.572  66.502  1.00  0.00    -0.206 A  
HETATM    9  N   UNL     1      -9.559   9.517  65.643  1.00  0.00    -0.264 NA 
HETATM   10  N   UNL     1      -9.248   8.842  67.749  1.00  0.00    -0.134 NA 
HETATM   11  C   UNL     1      -9.233   8.499  66.403  1.00  0.00    -0.199 A  
HETATM   12  C   UNL     1      -8.886   7.951  68.765  1.00  0.00    -0.138 A  
HETATM   13  C   UNL     1      -8.098   5.702  69.493  1.00  0.00    -0.103 C  
HETATM   14  C   UNL     1      -8.877   7.162  66.074  1.00  0.00    -0.154 A  
HETATM   15  C   UNL     1      -8.522   6.692  68.455  1.00  0.00    -0.122 A  
HETATM   16  C   UNL     1      -8.540   6.292  67.049  1.00  0.00    -0.104 A  
BRANCH   8  17
HETATM   17  C   UNL     1     -10.165  11.898  66.021  1.00  0.00    -0.262 A  
HETATM   18  C   UNL     1     -11.607  13.290  64.635  1.00  0.00    -0.385 A  
HETATM   19  C   UNL     1     -11.016  14.451  65.144  1.00  0.00    -0.380 A  
HETATM   20  C   UNL     1      -9.954  14.327  66.042  1.00  0.00    -0.337 A  
HETATM   21  C   UNL     1      -9.525  13.063  66.460  1.00  0.00    -0.246 A  
HETATM   22  C   UNL     1     -11.186  12.027  65.072  1.00  0.00    -0.374 A  
HETATM   23  C   UNL     1     -11.506  15.802  64.715  1.00  0.00    -0.256 C  
ENDBRANCH   8  17
ENDBRANCH   6   7
ENDBRANCH   3   6
TORSDOF 3
ENDMDL
MODEL       88
REMARK 921   NORMALIZED FREE ENERGY PREDICTED BY IDOCK:   -4.72 KCAL/MOL
REMARK 922        TOTAL FREE ENERGY PREDICTED BY IDOCK:   -6.39 KCAL/MOL
REMARK 923 INTER-LIGAND FREE ENERGY PREDICTED BY IDOCK:   -5.86 KCAL/MOL
REMARK 924 INTRA-LIGAND FREE ENERGY PREDICTED BY IDOCK:   -0.54 KCAL/MOL
REMARK 927      BINDING AFFINITY PREDICTED BY RF-SCORE:    0.00 PKD
ROOT
HETATM    1  C   UNL     1     -12.261  14.500  64.183  1.00  0.00    -0.342 C  
HETATM    2  N   UNL     1     -11.909  13.371  65.026  1.00  0.00    -0.337 N  
HETATM    3  C   UNL     1     -12.062  13.554  66.404  1.00  0.00    -0.417 C  
HETATM    4  C   UNL     1     -11.867  12.055  64.412  1.00  0.00    -0.313 C  
HETATM    5  O   UNL     1     -12.410  14.641  66.867  1.00  0.00    -0.234 OA 
ENDROOT
BRANCH   3   6
HETATM    6  C   UNL     1     -11.751  12.348  67.291  1.00  0.00    -0.419 C  
BRANCH   6   7
HETATM    7  C   UNL     1     -10.295  12.010  67.266  1.00  0.00    -0.212 A  
HETATM    8  C   UNL     1      -9.147  12.792  67.352  1.00  0.00    -0.192 A  
HETATM    9  N   UNL     1      -8.023  12.022  67.135  1.00  0.00    -0.172 NA 
HETATM   10  N   UNL     1      -9.833  10.712  67.132  1.00  0.00    -0.171 NA 
HETATM   11  C   UNL     1      -8.451  10.787  67.011  1.00  0.00    -0.128 A  
HETATM   12  C   UNL     1     -10.535   9.503  67.093  1.00  0.00    -0.253 A  
HETATM   13  C   UNL     1     -10.560   7.019  66.887  1.00  0.00    -0.372 C  
HETATM   14  C   UNL     1      -7.748   9.571  66.790  1.00  0.00    -0.098 A  
HETATM   15  C   UNL     1      -9.869   8.346  66.910  1.00  0.00    -0.313 A  
HETATM   16  C   UNL     1      -8.418   8.402  66.737  1.00  0.00    -0.114 A  
BRANCH   8  17
HETATM   17  C   UNL     1      -9.074  14.234  67.556  1.00  0.00    -0.193 A  
HETATM   18  C   UNL     1      -8.768  16.465  66.623  1.00  0.00    -0.291 A  
HETATM   19  C   UNL     1      -9.038  17.048  67.867  1.00  0.00    -0.232 A  
HETATM   20  C   UNL     1      -9.259  16.215  68.965  1.00  0.00    -0.252 A  
HETATM   21  C   UNL     1      -9.259  14.825  68.811  1.00  0.00    -0.196 A  
HETATM   22  C   UNL     1      -8.789  15.073  66.470  1.00  0.00    -0.286 A  
HETATM   23  C   UNL     1      -9.069  18.540  68.014  1.00  0.00    -0.319 C  
ENDBRANCH   8  17
ENDBRANCH   6   7
ENDBRANCH   3   6
TORSDOF 3
ENDMDL
MODEL       89
REMARK 921   NORMALIZED FREE ENERGY PREDICTED BY IDOCK:   -4.71 KCAL/MOL
REMARK 922        TOTAL FREE ENERGY PREDICTED BY IDOCK:   -6.38 KCAL/MOL
REMARK 923 INTER-LIGAND FREE ENERGY PREDICTED BY IDOCK:   -5.46 KCAL/MOL
REMARK 924 INTRA-LIGAND FREE ENERGY PREDICTED BY IDOCK:   -0.92 KCAL/MOL
REMARK 927      BINDING AFFINITY PREDICTED BY RF-SCORE:    0.00 PKD
ROOT
HETATM    1  C   UNL     1      -9.029   7.323  66.307  1.00  0.00    -0.156 C  
HETATM    2  N   UNL     1      -8.776   8.282  67.368  1.00  0.00    -0.124 N  
HETATM    3  C   UNL     1      -9.845   9.109  67.724  1.00  0.00    -0.174 C  
HETATM    4  C   UNL     1      -7.652   8.029  68.254  1.00  0.00    -0.109 C  
HETATM    5  O   UNL     1     -10.915   9.065  67.116  1.00  0.00    -0.119 OA 
ENDROOT
BRANCH   3   6
HETATM    6  C   UNL     1      -9.600  10.078  68.882  1.00  0.00    -0.181 C  
BRANCH   6   7
HETATM    7  C   UNL     1     -10.605   9.895  69.972  1.00  0.00    -0.288 A  
HETATM    8  C   UNL     1     -10.969   8.793  70.740  1.00  0.00    -0.247 A  
HETATM    9  N   UNL     1     -12.060   9.094  71.529  1.00  0.00    -0.327 NA 
HETATM   10  N   UNL     1     -11.418  10.923  70.420  1.00  0.00    -0.305 NA 
HETATM   11  C   UNL     1     -12.309  10.367  71.328  1.00  0.00    -0.401 A  
HETATM   12  C   UNL     1     -11.432  12.279  70.073  1.00  0.00    -0.053 A  
HETATM   13  C   UNL     1     -12.402  14.563  70.304  1.00  0.00    -0.408 C  
HETATM   14  C   UNL     1     -13.301  11.225  71.879  1.00  0.00    -0.413 A  
HETATM   15  C   UNL     1     -12.353  13.100  70.614  1.00  0.00    -0.405 A  
HETATM   16  C   UNL     1     -13.331  12.530  71.540  1.00  0.00    -0.180 A  
BRANCH   8  17
HETATM   17  C   UNL     1     -10.380   7.459  70.705  1.00  0.00    -0.208 A  
HETATM   18  C   UNL     1      -8.663   5.910  71.476  1.00  0.00    -0.132 A  
HETATM   19  C   UNL     1      -9.262   4.859  70.773  1.00  0.00    -0.196 A  
HETATM   20  C   UNL     1     -10.382   5.129  69.985  1.00  0.00    -0.347 A  
HETATM   21  C   UNL     1     -10.921   6.419  69.941  1.00  0.00    -0.410 A  
HETATM   22  C   UNL     1      -9.219   7.196  71.443  1.00  0.00    -0.150 A  
HETATM   23  C   UNL     1      -8.696   3.472  70.854  1.00  0.00    -0.123 C  
ENDBRANCH   8  17
ENDBRANCH   6   7
ENDBRANCH   3   6
TORSDOF 3
ENDMDL
MODEL       90
REMARK 921   NORMALIZED FREE ENERGY PREDICTED BY IDOCK:   -4.71 KCAL/MOL
REMARK 922        TOTAL FREE ENERGY PREDICTED BY IDOCK:   -6.38 KCAL/MOL
REMARK 923 INTER-LIGAND FREE ENERGY PREDICTED BY IDOCK:   -5.45 KCAL/MOL
REMARK 924 INTRA-LIGAND FREE ENERGY PREDICTED BY IDOCK:   -0.92 KCAL/MOL
REMARK 927      BINDING AFFINITY PREDICTED BY RF-SCORE:    0.00 PKD
ROOT
HETATM    1  C   UNL     1      -8.456   8.136  65.495  1.00  0.00    -0.159 C  
HETATM    2  N   UNL     1      -8.346   8.426  66.914  1.00  0.00    -0.106 N  
HETATM    3  C   UNL     1      -9.540   8.707  67.584  1.00  0.00    -0.155 C  
HETATM    4  C   UNL     1      -7.146   7.983  67.604  1.00  0.00    -0.083 C  
HETATM    5  O   UNL     1     -10.611   8.770  66.979  1.00  0.00    -0.282 OA 
ENDROOT
BRANCH   3   6
HETATM    6  C   UNL     1      -9.435   8.953  69.090  1.00  0.00    -0.157 C  
BRANCH   6   7
HETATM    7  C   UNL     1     -10.430   8.137  69.850  1.00  0.00    -0.226 A  
HETATM    8  C   UNL     1     -10.591   6.765  70.015  1.00  0.00    -0.220 A  
HETATM    9  N   UNL     1     -11.757   6.496  70.701  1.00  0.00    -0.390 NA 
HETATM   10  N   UNL     1     -11.460   8.706  70.581  1.00  0.00    -0.258 NA 
HETATM   11  C   UNL     1     -12.257   7.663  71.034  1.00  0.00    -0.236 A  
HETATM   12  C   UNL     1     -11.741  10.051  70.850  1.00  0.00    -0.374 A  
HETATM   13  C   UNL     1     -13.177  11.794  71.903  1.00  0.00    -0.468 C  
HETATM   14  C   UNL     1     -13.431   8.006  71.759  1.00  0.00    -0.378 A  
HETATM   15  C   UNL     1     -12.838  10.378  71.560  1.00  0.00    -0.569 A  
HETATM   16  C   UNL     1     -13.717   9.300  72.011  1.00  0.00    -0.493 A  
BRANCH   8  17
HETATM   17  C   UNL     1      -9.735   5.706  69.492  1.00  0.00    -0.206 A  
HETATM   18  C   UNL     1      -7.790   4.264  69.764  1.00  0.00    -0.053 A  
HETATM   19  C   UNL     1      -8.106   3.575  68.588  1.00  0.00    -0.073 A  
HETATM   20  C   UNL     1      -9.201   4.001  67.833  1.00  0.00    -0.200 A  
HETATM   21  C   UNL     1      -9.993   5.065  68.275  1.00  0.00    -0.193 A  
HETATM   22  C   UNL     1      -8.599   5.316  70.212  1.00  0.00    -0.126 A  
HETATM   23  C   UNL     1      -7.269   2.413  68.140  1.00  0.00    -0.048 C  
ENDBRANCH   8  17
ENDBRANCH   6   7
ENDBRANCH   3   6
TORSDOF 3
ENDMDL
MODEL       91
REMARK 921   NORMALIZED FREE ENERGY PREDICTED BY IDOCK:   -4.68 KCAL/MOL
REMARK 922        TOTAL FREE ENERGY PREDICTED BY IDOCK:   -6.34 KCAL/MOL
REMARK 923 INTER-LIGAND FREE ENERGY PREDICTED BY IDOCK:   -5.55 KCAL/MOL
REMARK 924 INTRA-LIGAND FREE ENERGY PREDICTED BY IDOCK:   -0.79 KCAL/MOL
REMARK 927      BINDING AFFINITY PREDICTED BY RF-SCORE:    0.00 PKD
ROOT
HETATM    1  C   UNL     1      -7.679   7.808  66.904  1.00  0.00    -0.103 C  
HETATM    2  N   UNL     1      -7.902   8.533  68.142  1.00  0.00    -0.102 N  
HETATM    3  C   UNL     1      -9.079   9.283  68.219  1.00  0.00    -0.128 C  
HETATM    4  C   UNL     1      -7.172   8.099  69.322  1.00  0.00    -0.072 C  
HETATM    5  O   UNL     1      -9.842   9.370  67.256  1.00  0.00    -0.160 OA 
ENDROOT
BRANCH   3   6
HETATM    6  C   UNL     1      -9.347   9.999  69.543  1.00  0.00    -0.247 C  
BRANCH   6   7
HETATM    7  C   UNL     1     -10.775   9.866  69.961  1.00  0.00    -0.292 A  
HETATM    8  C   UNL     1     -11.855  10.743  69.912  1.00  0.00    -0.335 A  
HETATM    9  N   UNL     1     -12.947  10.198  70.556  1.00  0.00    -0.234 NA 
HETATM   10  N   UNL     1     -11.282   8.709  70.529  1.00  0.00    -0.253 NA 
HETATM   11  C   UNL     1     -12.588   8.987  70.911  1.00  0.00    -0.030 A  
HETATM   12  C   UNL     1     -10.675   7.466  70.741  1.00  0.00    -0.232 A  
HETATM   13  C   UNL     1     -10.774   5.125  71.590  1.00  0.00    -0.181 C  
HETATM   14  C   UNL     1     -13.302   7.960  71.590  1.00  0.00    -0.374 A  
HETATM   15  C   UNL     1     -11.357   6.483  71.359  1.00  0.00    -0.344 A  
HETATM   16  C   UNL     1     -12.719   6.764  71.811  1.00  0.00    -0.342 A  
BRANCH   8  17
HETATM   17  C   UNL     1     -11.875  12.089  69.352  1.00  0.00    -0.384 A  
HETATM   18  C   UNL     1     -12.121  14.491  69.689  1.00  0.00    -0.369 A  
HETATM   19  C   UNL     1     -11.807  14.735  68.347  1.00  0.00    -0.319 A  
HETATM   20  C   UNL     1     -11.594  13.647  67.498  1.00  0.00    -0.384 A  
HETATM   21  C   UNL     1     -11.645  12.341  67.995  1.00  0.00    -0.408 A  
HETATM   22  C   UNL     1     -12.151  13.181  70.186  1.00  0.00    -0.392 A  
HETATM   23  C   UNL     1     -11.722  16.141  67.832  1.00  0.00     0.132 C  
ENDBRANCH   8  17
ENDBRANCH   6   7
ENDBRANCH   3   6
TORSDOF 3
ENDMDL
MODEL       92
REMARK 921   NORMALIZED FREE ENERGY PREDICTED BY IDOCK:   -4.67 KCAL/MOL
REMARK 922        TOTAL FREE ENERGY PREDICTED BY IDOCK:   -6.33 KCAL/MOL
REMARK 923 INTER-LIGAND FREE ENERGY PREDICTED BY IDOCK:   -5.87 KCAL/MOL
REMARK 924 INTRA-LIGAND FREE ENERGY PREDICTED BY IDOCK:   -0.46 KCAL/MOL
REMARK 927      BINDING AFFINITY PREDICTED BY RF-SCORE:    0.00 PKD
ROOT
HETATM    1  C   UNL     1      -7.724   5.429  66.529  1.00  0.00    -0.099 C  
HETATM    2  N   UNL     1      -9.094   5.775  66.867  1.00  0.00    -0.116 N  
HETATM    3  C   UNL     1      -9.357   7.132  67.076  1.00  0.00    -0.151 C  
HETATM    4  C   UNL     1     -10.135   4.818  66.536  1.00  0.00    -0.257 C  
HETATM    5  O   UNL     1      -8.454   7.969  67.040  1.00  0.00    -0.117 OA 
ENDROOT
BRANCH   3   6
HETATM    6  C   UNL     1     -10.810   7.507  67.373  1.00  0.00    -0.272 C  
BRANCH   6   7
HETATM    7  C   UNL     1     -10.906   8.472  68.510  1.00  0.00     0.071 A  
HETATM    8  C   UNL     1     -10.985   9.860  68.561  1.00  0.00    -0.180 A  
HETATM    9  N   UNL     1     -10.912  10.299  69.868  1.00  0.00    -0.282 NA 
HETATM   10  N   UNL     1     -10.925   8.065  69.834  1.00  0.00    -0.216 NA 
HETATM   11  C   UNL     1     -10.882   9.216  70.610  1.00  0.00    -0.264 A  
HETATM   12  C   UNL     1     -10.960   6.779  70.383  1.00  0.00    -0.283 A  
HETATM   13  C   UNL     1     -10.994   5.272  72.368  1.00  0.00    -0.273 C  
HETATM   14  C   UNL     1     -10.822   9.051  72.021  1.00  0.00    -0.342 A  
HETATM   15  C   UNL     1     -10.931   6.619  71.721  1.00  0.00    -0.276 A  
HETATM   16  C   UNL     1     -10.841   7.814  72.559  1.00  0.00    -0.386 A  
BRANCH   8  17
HETATM   17  C   UNL     1     -11.053  10.783  67.434  1.00  0.00    -0.363 A  
HETATM   18  C   UNL     1     -11.745  12.941  66.537  1.00  0.00    -0.453 A  
HETATM   19  C   UNL     1     -11.111  12.665  65.320  1.00  0.00    -0.330 A  
HETATM   20  C   UNL     1     -10.507  11.419  65.144  1.00  0.00    -0.351 A  
HETATM   21  C   UNL     1     -10.495  10.485  66.186  1.00  0.00    -0.237 A  
HETATM   22  C   UNL     1     -11.713  12.010  67.583  1.00  0.00    -0.365 A  
HETATM   23  C   UNL     1     -11.100  13.686  64.222  1.00  0.00    -0.332 C  
ENDBRANCH   8  17
ENDBRANCH   6   7
ENDBRANCH   3   6
TORSDOF 3
ENDMDL
MODEL       93
REMARK 921   NORMALIZED FREE ENERGY PREDICTED BY IDOCK:   -4.65 KCAL/MOL
REMARK 922        TOTAL FREE ENERGY PREDICTED BY IDOCK:   -6.31 KCAL/MOL
REMARK 923 INTER-LIGAND FREE ENERGY PREDICTED BY IDOCK:   -5.39 KCAL/MOL
REMARK 924 INTRA-LIGAND FREE ENERGY PREDICTED BY IDOCK:   -0.92 KCAL/MOL
REMARK 927      BINDING AFFINITY PREDICTED BY RF-SCORE:    0.00 PKD
ROOT
HETATM    1  C   UNL     1     -12.836  13.735  65.557  1.00  0.00    -0.419 C  
HETATM    2  N   UNL     1     -11.482  14.150  65.234  1.00  0.00    -0.319 N  
HETATM    3  C   UNL     1     -10.876  15.038  66.127  1.00  0.00    -0.329 C  
HETATM    4  C   UNL     1     -10.720  13.317  64.319  1.00  0.00    -0.387 C  
HETATM    5  O   UNL     1     -11.493  15.490  67.093  1.00  0.00    -0.223 OA 
ENDROOT
BRANCH   3   6
HETATM    6  C   UNL     1      -9.430  15.430  65.823  1.00  0.00    -0.325 C  
BRANCH   6   7
HETATM    7  C   UNL     1      -8.542  15.212  67.006  1.00  0.00    -0.237 A  
HETATM    8  C   UNL     1      -8.204  14.073  67.730  1.00  0.00    -0.168 A  
HETATM    9  N   UNL     1      -7.451  14.411  68.836  1.00  0.00    -0.129 NA 
HETATM   10  N   UNL     1      -7.854  16.243  67.623  1.00  0.00    -0.140 NA 
HETATM   11  C   UNL     1      -7.250  15.705  68.752  1.00  0.00    -0.133 A  
HETATM   12  C   UNL     1      -7.745  17.593  67.272  1.00  0.00    -0.204 A  
HETATM   13  C   UNL     1      -6.869  19.883  67.720  1.00  0.00    -0.284 C  
HETATM   14  C   UNL     1      -6.534  16.597  69.597  1.00  0.00    -0.195 A  
HETATM   15  C   UNL     1      -7.045  18.436  68.056  1.00  0.00    -0.237 A  
HETATM   16  C   UNL     1      -6.436  17.903  69.274  1.00  0.00    -0.248 A  
BRANCH   8  17
HETATM   17  C   UNL     1      -8.619  12.700  67.463  1.00  0.00    -0.185 A  
HETATM   18  C   UNL     1     -10.301  10.948  67.661  1.00  0.00    -0.232 A  
HETATM   19  C   UNL     1      -9.531  10.086  66.872  1.00  0.00    -0.203 A  
HETATM   20  C   UNL     1      -8.276  10.515  66.437  1.00  0.00    -0.140 A  
HETATM   21  C   UNL     1      -7.821  11.801  66.746  1.00  0.00    -0.103 A  
HETATM   22  C   UNL     1      -9.850  12.242  67.950  1.00  0.00    -0.201 A  
HETATM   23  C   UNL     1     -10.042   8.721  66.519  1.00  0.00    -0.349 C  
ENDBRANCH   8  17
ENDBRANCH   6   7
ENDBRANCH   3   6
TORSDOF 3
ENDMDL
MODEL       94
REMARK 921   NORMALIZED FREE ENERGY PREDICTED BY IDOCK:   -4.60 KCAL/MOL
REMARK 922        TOTAL FREE ENERGY PREDICTED BY IDOCK:   -6.24 KCAL/MOL
REMARK 923 INTER-LIGAND FREE ENERGY PREDICTED BY IDOCK:   -5.85 KCAL/MOL
REMARK 924 INTRA-LIGAND FREE ENERGY PREDICTED BY IDOCK:   -0.40 KCAL/MOL
REMARK 927      BINDING AFFINITY PREDICTED BY RF-SCORE:    0.00 PKD
ROOT
HETATM    1  C   UNL     1     -12.802  13.172  64.849  1.00  0.00    -0.280 C  
HETATM    2  N   UNL     1     -11.438  13.664  64.766  1.00  0.00    -0.339 N  
HETATM    3  C   UNL     1     -11.144  14.808  65.513  1.00  0.00    -0.346 C  
HETATM    4  C   UNL     1     -10.412  12.739  64.314  1.00  0.00    -0.399 C  
HETATM    5  O   UNL     1     -12.020  15.397  66.146  1.00  0.00     0.190 OA 
ENDROOT
BRANCH   3   6
HETATM    6  C   UNL     1      -9.694  15.293  65.475  1.00  0.00    -0.313 C  
BRANCH   6   7
HETATM    7  C   UNL     1      -9.264  15.840  66.798  1.00  0.00    -0.243 A  
HETATM    8  C   UNL     1      -9.445  15.394  68.103  1.00  0.00    -0.202 A  
HETATM    9  N   UNL     1      -8.977  16.331  69.002  1.00  0.00    -0.257 NA 
HETATM   10  N   UNL     1      -8.543  17.016  66.921  1.00  0.00    -0.213 NA 
HETATM   11  C   UNL     1      -8.440  17.286  68.279  1.00  0.00    -0.243 A  
HETATM   12  C   UNL     1      -8.000  17.850  65.936  1.00  0.00    -0.023 A  
HETATM   13  C   UNL     1      -6.738  19.899  65.290  1.00  0.00    -0.330 C  
HETATM   14  C   UNL     1      -7.793  18.495  68.658  1.00  0.00    -0.338 A  
HETATM   15  C   UNL     1      -7.363  18.982  66.292  1.00  0.00    -0.281 A  
HETATM   16  C   UNL     1      -7.279  19.311  67.715  1.00  0.00    -0.274 A  
BRANCH   8  17
HETATM   17  C   UNL     1     -10.100  14.164  68.534  1.00  0.00    -0.243 A  
HETATM   18  C   UNL     1     -11.935  13.073  69.709  1.00  0.00    -0.377 A  
HETATM   19  C   UNL     1     -11.483  11.815  69.297  1.00  0.00    -0.369 A  
HETATM   20  C   UNL     1     -10.300  11.734  68.559  1.00  0.00    -0.228 A  
HETATM   21  C   UNL     1      -9.611  12.896  68.199  1.00  0.00    -0.223 A  
HETATM   22  C   UNL     1     -11.251  14.235  69.328  1.00  0.00    -0.309 A  
HETATM   23  C   UNL     1     -12.248  10.577  69.660  1.00  0.00    -0.208 C  
ENDBRANCH   8  17
ENDBRANCH   6   7
ENDBRANCH   3   6
TORSDOF 3
ENDMDL
MODEL       95
REMARK 921   NORMALIZED FREE ENERGY PREDICTED BY IDOCK:   -4.59 KCAL/MOL
REMARK 922        TOTAL FREE ENERGY PREDICTED BY IDOCK:   -6.24 KCAL/MOL
REMARK 923 INTER-LIGAND FREE ENERGY PREDICTED BY IDOCK:   -5.38 KCAL/MOL
REMARK 924 INTRA-LIGAND FREE ENERGY PREDICTED BY IDOCK:   -0.86 KCAL/MOL
REMARK 927      BINDING AFFINITY PREDICTED BY RF-SCORE:    0.00 PKD
ROOT
HETATM    1  C   UNL     1      -7.555   4.384  66.332  1.00  0.00    -0.086 C  
HETATM    2  N   UNL     1      -8.895   4.938  66.408  1.00  0.00    -0.113 N  
HETATM    3  C   UNL     1      -8.992   6.273  66.813  1.00  0.00    -0.125 C  
HETATM    4  C   UNL     1      -9.949   4.267  65.665  1.00  0.00    -0.224 C  
HETATM    5  O   UNL     1      -7.994   6.910  67.150  1.00  0.00    -0.110 OA 
ENDROOT
BRANCH   3   6
HETATM    6  C   UNL     1     -10.397   6.878  66.836  1.00  0.00    -0.332 C  
BRANCH   6   7
HETATM    7  C   UNL     1     -10.413   8.199  67.535  1.00  0.00    -0.256 A  
HETATM    8  C   UNL     1     -10.556   8.552  68.873  1.00  0.00    -0.144 A  
HETATM    9  N   UNL     1     -10.649   9.923  69.002  1.00  0.00    -0.212 NA 
HETATM   10  N   UNL     1     -10.279   9.402  66.862  1.00  0.00    -0.242 NA 
HETATM   11  C   UNL     1     -10.477  10.410  67.796  1.00  0.00    -0.226 A  
HETATM   12  C   UNL     1     -10.017   9.656  65.511  1.00  0.00    -0.209 A  
HETATM   13  C   UNL     1      -9.667  11.264  63.639  1.00  0.00    -0.351 C  
HETATM   14  C   UNL     1     -10.456  11.752  67.323  1.00  0.00    -0.242 A  
HETATM   15  C   UNL     1      -9.970  10.927  65.065  1.00  0.00    -0.356 A  
HETATM   16  C   UNL     1     -10.218  12.006  66.020  1.00  0.00    -0.256 A  
BRANCH   8  17
HETATM   17  C   UNL     1     -10.680   7.654  70.016  1.00  0.00    -0.245 A  
HETATM   18  C   UNL     1     -12.082   6.616  71.717  1.00  0.00    -0.400 A  
HETATM   19  C   UNL     1     -11.008   5.835  72.160  1.00  0.00    -0.311 A  
HETATM   20  C   UNL     1      -9.756   6.017  71.570  1.00  0.00    -0.186 A  
HETATM   21  C   UNL     1      -9.595   6.930  70.522  1.00  0.00    -0.171 A  
HETATM   22  C   UNL     1     -11.919   7.514  70.654  1.00  0.00    -0.161 A  
HETATM   23  C   UNL     1     -11.200   4.835  73.261  1.00  0.00    -0.421 C  
ENDBRANCH   8  17
ENDBRANCH   6   7
ENDBRANCH   3   6
TORSDOF 3
ENDMDL
MODEL       96
REMARK 921   NORMALIZED FREE ENERGY PREDICTED BY IDOCK:   -4.57 KCAL/MOL
REMARK 922        TOTAL FREE ENERGY PREDICTED BY IDOCK:   -6.21 KCAL/MOL
REMARK 923 INTER-LIGAND FREE ENERGY PREDICTED BY IDOCK:   -5.42 KCAL/MOL
REMARK 924 INTRA-LIGAND FREE ENERGY PREDICTED BY IDOCK:   -0.80 KCAL/MOL
REMARK 927      BINDING AFFINITY PREDICTED BY RF-SCORE:    0.00 PKD
ROOT
HETATM    1  C   UNL     1     -13.300  13.508  71.016  1.00  0.00     0.008 C  
HETATM    2  N   UNL     1     -12.044  13.658  70.303  1.00  0.00    -0.346 N  
HETATM    3  C   UNL     1     -11.664  12.591  69.483  1.00  0.00    -0.309 C  
HETATM    4  C   UNL     1     -11.521  15.003  70.129  1.00  0.00    -0.277 C  
HETATM    5  O   UNL     1     -12.332  11.558  69.432  1.00  0.00    -0.231 OA 
ENDROOT
BRANCH   3   6
HETATM    6  C   UNL     1     -10.372  12.771  68.684  1.00  0.00    -0.194 C  
BRANCH   6   7
HETATM    7  C   UNL     1     -10.141  11.627  67.750  1.00  0.00    -0.187 A  
HETATM    8  C   UNL     1      -9.576  10.368  67.927  1.00  0.00    -0.142 A  
HETATM    9  N   UNL     1      -9.458   9.719  66.716  1.00  0.00    -0.157 NA 
HETATM   10  N   UNL     1     -10.496  11.673  66.413  1.00  0.00    -0.236 NA 
HETATM   11  C   UNL     1     -10.015  10.509  65.828  1.00  0.00    -0.258 A  
HETATM   12  C   UNL     1     -11.183  12.657  65.694  1.00  0.00    -0.309 A  
HETATM   13  C   UNL     1     -12.134  13.508  63.552  1.00  0.00    -0.425 C  
HETATM   14  C   UNL     1     -10.200  10.357  64.426  1.00  0.00    -0.245 A  
HETATM   15  C   UNL     1     -11.383  12.505  64.370  1.00  0.00    -0.395 A  
HETATM   16  C   UNL     1     -10.848  11.308  63.722  1.00  0.00    -0.424 A  
BRANCH   8  17
HETATM   17  C   UNL     1      -9.082   9.789  69.171  1.00  0.00    -0.166 A  
HETATM   18  C   UNL     1      -7.204   9.279  70.640  1.00  0.00    -0.120 A  
HETATM   19  C   UNL     1      -8.074   8.788  71.620  1.00  0.00    -0.153 A  
HETATM   20  C   UNL     1      -9.441   8.739  71.343  1.00  0.00    -0.330 A  
HETATM   21  C   UNL     1      -9.933   9.219  70.124  1.00  0.00    -0.251 A  
HETATM   22  C   UNL     1      -7.705   9.776  69.430  1.00  0.00    -0.109 A  
HETATM   23  C   UNL     1      -7.540   8.308  72.937  1.00  0.00    -0.161 C  
ENDBRANCH   8  17
ENDBRANCH   6   7
ENDBRANCH   3   6
TORSDOF 3
ENDMDL
MODEL       97
REMARK 921   NORMALIZED FREE ENERGY PREDICTED BY IDOCK:   -4.53 KCAL/MOL
REMARK 922        TOTAL FREE ENERGY PREDICTED BY IDOCK:   -6.16 KCAL/MOL
REMARK 923 INTER-LIGAND FREE ENERGY PREDICTED BY IDOCK:   -5.68 KCAL/MOL
REMARK 924 INTRA-LIGAND FREE ENERGY PREDICTED BY IDOCK:   -0.48 KCAL/MOL
REMARK 927      BINDING AFFINITY PREDICTED BY RF-SCORE:    0.00 PKD
ROOT
HETATM    1  C   UNL     1      -7.023   6.119  66.942  1.00  0.00    -0.071 C  
HETATM    2  N   UNL     1      -8.302   6.703  66.577  1.00  0.00    -0.113 N  
HETATM    3  C   UNL     1      -9.173   6.998  67.630  1.00  0.00    -0.120 C  
HETATM    4  C   UNL     1      -8.410   7.334  65.272  1.00  0.00    -0.104 C  
HETATM    5  O   UNL     1      -8.888   6.708  68.792  1.00  0.00    -0.127 OA 
ENDROOT
BRANCH   3   6
HETATM    6  C   UNL     1     -10.495   7.668  67.255  1.00  0.00    -0.396 C  
BRANCH   6   7
HETATM    7  C   UNL     1     -10.574   9.062  67.787  1.00  0.00    -0.214 A  
HETATM    8  C   UNL     1     -10.622   9.573  69.081  1.00  0.00    -0.222 A  
HETATM    9  N   UNL     1     -10.836  10.936  69.053  1.00  0.00    -0.214 NA 
HETATM   10  N   UNL     1     -10.623  10.175  66.964  1.00  0.00    -0.242 NA 
HETATM   11  C   UNL     1     -10.829  11.275  67.786  1.00  0.00    -0.235 A  
HETATM   12  C   UNL     1     -10.518  10.273  65.572  1.00  0.00    -0.069 A  
HETATM   13  C   UNL     1     -10.508  11.648  63.494  1.00  0.00    -0.498 C  
HETATM   14  C   UNL     1     -10.985  12.541  67.155  1.00  0.00    -0.302 A  
HETATM   15  C   UNL     1     -10.638  11.474  64.974  1.00  0.00    -0.354 A  
HETATM   16  C   UNL     1     -10.899  12.643  65.813  1.00  0.00    -0.304 A  
BRANCH   8  17
HETATM   17  C   UNL     1     -10.548   8.823  70.330  1.00  0.00    -0.239 A  
HETATM   18  C   UNL     1     -11.441   7.078  71.778  1.00  0.00    -0.301 A  
HETATM   19  C   UNL     1     -10.386   7.254  72.680  1.00  0.00    -0.264 A  
HETATM   20  C   UNL     1      -9.451   8.261  72.434  1.00  0.00    -0.357 A  
HETATM   21  C   UNL     1      -9.545   9.046  71.280  1.00  0.00    -0.361 A  
HETATM   22  C   UNL     1     -11.519   7.854  70.614  1.00  0.00    -0.247 A  
HETATM   23  C   UNL     1     -10.276   6.384  73.898  1.00  0.00    -0.330 C  
ENDBRANCH   8  17
ENDBRANCH   6   7
ENDBRANCH   3   6
TORSDOF 3
ENDMDL
MODEL       98
REMARK 921   NORMALIZED FREE ENERGY PREDICTED BY IDOCK:   -4.51 KCAL/MOL
REMARK 922        TOTAL FREE ENERGY PREDICTED BY IDOCK:   -6.14 KCAL/MOL
REMARK 923 INTER-LIGAND FREE ENERGY PREDICTED BY IDOCK:   -5.51 KCAL/MOL
REMARK 924 INTRA-LIGAND FREE ENERGY PREDICTED BY IDOCK:   -0.64 KCAL/MOL
REMARK 927      BINDING AFFINITY PREDICTED BY RF-SCORE:    0.00 PKD
ROOT
HETATM    1  C   UNL     1     -12.614  13.407  65.306  1.00  0.00    -0.464 C  
HETATM    2  N   UNL     1     -11.440  12.551  65.284  1.00  0.00    -0.320 N  
HETATM    3  C   UNL     1     -11.241  11.743  66.408  1.00  0.00    -0.323 C  
HETATM    4  C   UNL     1     -10.840  12.259  63.994  1.00  0.00    -0.389 C  
HETATM    5  O   UNL     1     -11.988  11.815  67.384  1.00  0.00    -0.617 OA 
ENDROOT
BRANCH   3   6
HETATM    6  C   UNL     1     -10.040  10.797  66.363  1.00  0.00    -0.278 C  
BRANCH   6   7
HETATM    7  C   UNL     1      -9.394  10.666  67.704  1.00  0.00    -0.146 A  
HETATM    8  C   UNL     1      -8.564  11.512  68.433  1.00  0.00    -0.159 A  
HETATM    9  N   UNL     1      -8.108  10.876  69.570  1.00  0.00     0.006 NA 
HETATM   10  N   UNL     1      -9.547   9.544  68.500  1.00  0.00    -0.141 NA 
HETATM   11  C   UNL     1      -8.708   9.709  69.595  1.00  0.00    -0.197 A  
HETATM   12  C   UNL     1     -10.344   8.409  68.317  1.00  0.00    -0.199 A  
HETATM   13  C   UNL     1     -11.149   6.181  69.092  1.00  0.00    -0.448 C  
HETATM   14  C   UNL     1      -8.638   8.641  70.531  1.00  0.00    -0.170 A  
HETATM   15  C   UNL     1     -10.301   7.407  69.217  1.00  0.00    -0.204 A  
HETATM   16  C   UNL     1      -9.393   7.537  70.355  1.00  0.00    -0.161 A  
BRANCH   8  17
HETATM   17  C   UNL     1      -8.130  12.855  68.067  1.00  0.00    -0.159 A  
HETATM   18  C   UNL     1      -6.312  14.424  67.646  1.00  0.00    -0.126 A  
HETATM   19  C   UNL     1      -7.223  15.409  67.248  1.00  0.00    -0.229 A  
HETATM   20  C   UNL     1      -8.589  15.132  67.326  1.00  0.00    -0.218 A  
HETATM   21  C   UNL     1      -9.033  13.875  67.747  1.00  0.00    -0.188 A  
HETATM   22  C   UNL     1      -6.762  13.160  68.049  1.00  0.00    -0.119 A  
HETATM   23  C   UNL     1      -6.736  16.743  66.765  1.00  0.00    -0.257 C  
ENDBRANCH   8  17
ENDBRANCH   6   7
ENDBRANCH   3   6
TORSDOF 3
ENDMDL
MODEL       99
REMARK 921   NORMALIZED FREE ENERGY PREDICTED BY IDOCK:   -4.49 KCAL/MOL
REMARK 922        TOTAL FREE ENERGY PREDICTED BY IDOCK:   -6.12 KCAL/MOL
REMARK 923 INTER-LIGAND FREE ENERGY PREDICTED BY IDOCK:   -5.26 KCAL/MOL
REMARK 924 INTRA-LIGAND FREE ENERGY PREDICTED BY IDOCK:   -0.86 KCAL/MOL
REMARK 927      BINDING AFFINITY PREDICTED BY RF-SCORE:    0.00 PKD
ROOT
HETATM    1  C   UNL     1     -12.881  12.674  71.297  1.00  0.00    -0.250 C  
HETATM    2  N   UNL     1     -12.039  11.968  70.348  1.00  0.00    -0.355 N  
HETATM    3  C   UNL     1     -11.781  10.623  70.628  1.00  0.00    -0.356 C  
HETATM    4  C   UNL     1     -11.904  12.529  69.014  1.00  0.00    -0.296 C  
HETATM    5  O   UNL     1     -12.194  10.098  71.662  1.00  0.00    -0.382 OA 
ENDROOT
BRANCH   3   6
HETATM    6  C   UNL     1     -10.944   9.860  69.600  1.00  0.00    -0.285 C  
BRANCH   6   7
HETATM    7  C   UNL     1      -9.522   9.728  70.039  1.00  0.00    -0.238 A  
HETATM    8  C   UNL     1      -8.891   8.871  70.935  1.00  0.00    -0.219 A  
HETATM    9  N   UNL     1      -7.572   9.241  71.107  1.00  0.00    -0.309 NA 
HETATM   10  N   UNL     1      -8.513  10.547  69.559  1.00  0.00    -0.100 NA 
HETATM   11  C   UNL     1      -7.366  10.236  70.276  1.00  0.00    -0.017 A  
HETATM   12  C   UNL     1      -8.547  11.534  68.567  1.00  0.00    -0.140 A  
HETATM   13  C   UNL     1      -7.401  13.293  67.224  1.00  0.00    -0.050 C  
HETATM   14  C   UNL     1      -6.199  11.003  70.006  1.00  0.00    -0.139 A  
HETATM   15  C   UNL     1      -7.436  12.245  68.290  1.00  0.00    -0.119 A  
HETATM   16  C   UNL     1      -6.226  11.966  69.063  1.00  0.00    -0.077 A  
BRANCH   8  17
HETATM   17  C   UNL     1      -9.494   7.774  71.683  1.00  0.00    -0.179 A  
HETATM   18  C   UNL     1     -10.267   5.464  71.748  1.00  0.00    -0.263 A  
HETATM   19  C   UNL     1     -10.550   5.572  73.114  1.00  0.00    -0.281 A  
HETATM   20  C   UNL     1     -10.365   6.804  73.744  1.00  0.00    -0.397 A  
HETATM   21  C   UNL     1      -9.859   7.895  73.028  1.00  0.00    -0.355 A  
HETATM   22  C   UNL     1      -9.742   6.554  71.042  1.00  0.00    -0.189 A  
HETATM   23  C   UNL     1     -11.060   4.387  73.880  1.00  0.00    -0.264 C  
ENDBRANCH   8  17
ENDBRANCH   6   7
ENDBRANCH   3   6
TORSDOF 3
ENDMDL
MODEL      100
REMARK 921   NORMALIZED FREE ENERGY PREDICTED BY IDOCK:   -4.45 KCAL/MOL
REMARK 922        TOTAL FREE ENERGY PREDICTED BY IDOCK:   -6.07 KCAL/MOL
REMARK 923 INTER-LIGAND FREE ENERGY PREDICTED BY IDOCK:   -5.36 KCAL/MOL
REMARK 924 INTRA-LIGAND FREE ENERGY PREDICTED BY IDOCK:   -0.71 KCAL/MOL
REMARK 927      BINDING AFFINITY PREDICTED BY RF-SCORE:    0.00 PKD
ROOT
HETATM    1  C   UNL     1     -14.164   8.881  72.381  1.00  0.00    -0.374 C  
HETATM    2  N   UNL     1     -12.902   9.438  71.928  1.00  0.00    -0.380 N  
HETATM    3  C   UNL     1     -11.839   8.540  71.795  1.00  0.00    -0.331 C  
HETATM    4  C   UNL     1     -12.935  10.719  71.242  1.00  0.00    -0.402 C  
HETATM    5  O   UNL     1     -11.962   7.357  72.114  1.00  0.00    -0.286 OA 
ENDROOT
BRANCH   3   6
HETATM    6  C   UNL     1     -10.525   9.112  71.261  1.00  0.00    -0.398 C  
BRANCH   6   7
HETATM    7  C   UNL     1     -10.046   8.359  70.063  1.00  0.00    -0.192 A  
HETATM    8  C   UNL     1      -9.435   7.117  69.915  1.00  0.00    -0.153 A  
HETATM    9  N   UNL     1      -9.050   6.923  68.604  1.00  0.00    -0.132 NA 
HETATM   10  N   UNL     1     -10.150   8.859  68.776  1.00  0.00    -0.195 NA 
HETATM   11  C   UNL     1      -9.489   7.968  67.942  1.00  0.00    -0.145 A  
HETATM   12  C   UNL     1     -10.761  10.028  68.308  1.00  0.00    -0.240 A  
HETATM   13  C   UNL     1     -11.358  11.558  66.434  1.00  0.00    -0.246 C  
HETATM   14  C   UNL     1      -9.400   8.306  66.563  1.00  0.00    -0.263 A  
HETATM   15  C   UNL     1     -10.703  10.338  66.999  1.00  0.00    -0.281 A  
HETATM   16  C   UNL     1      -9.974   9.438  66.106  1.00  0.00    -0.351 A  
BRANCH   8  17
HETATM   17  C   UNL     1      -9.139   6.148  70.964  1.00  0.00    -0.151 A  
HETATM   18  C   UNL     1      -7.938   5.579  73.007  1.00  0.00    -0.105 A  
HETATM   19  C   UNL     1      -8.613   4.356  73.092  1.00  0.00    -0.101 A  
HETATM   20  C   UNL     1      -9.500   4.007  72.072  1.00  0.00    -0.198 A  
HETATM   21  C   UNL     1      -9.745   4.888  71.014  1.00  0.00    -0.252 A  
HETATM   22  C   UNL     1      -8.201   6.466  71.955  1.00  0.00    -0.109 A  
HETATM   23  C   UNL     1      -8.369   3.434  74.249  1.00  0.00    -0.077 C  
ENDBRANCH   8  17
ENDBRANCH   6   7
ENDBRANCH   3   6
TORSDOF 3
ENDMDL
MODEL      101
REMARK 921   NORMALIZED FREE ENERGY PREDICTED BY IDOCK:   -4.45 KCAL/MOL
REMARK 922        TOTAL FREE ENERGY PREDICTED BY IDOCK:   -6.07 KCAL/MOL
REMARK 923 INTER-LIGAND FREE ENERGY PREDICTED BY IDOCK:   -5.64 KCAL/MOL
REMARK 924 INTRA-LIGAND FREE ENERGY PREDICTED BY IDOCK:   -0.43 KCAL/MOL
REMARK 927      BINDING AFFINITY PREDICTED BY RF-SCORE:    0.00 PKD
ROOT
HETATM    1  C   UNL     1     -11.980  14.137  66.004  1.00  0.00    -0.413 C  
HETATM    2  N   UNL     1     -10.839  13.527  66.663  1.00  0.00    -0.282 N  
HETATM    3  C   UNL     1     -10.991  12.195  67.060  1.00  0.00    -0.271 C  
HETATM    4  C   UNL     1      -9.537  14.143  66.469  1.00  0.00    -0.296 C  
HETATM    5  O   UNL     1     -12.062  11.606  66.916  1.00  0.00    -0.512 OA 
ENDROOT
BRANCH   3   6
HETATM    6  C   UNL     1      -9.770  11.531  67.701  1.00  0.00    -0.182 C  
BRANCH   6   7
HETATM    7  C   UNL     1      -9.553  10.153  67.166  1.00  0.00    -0.169 A  
HETATM    8  C   UNL     1      -9.610   8.895  67.758  1.00  0.00    -0.147 A  
HETATM    9  N   UNL     1      -9.186   7.926  66.872  1.00  0.00    -0.147 NA 
HETATM   10  N   UNL     1      -9.216   9.909  65.845  1.00  0.00    -0.164 NA 
HETATM   11  C   UNL     1      -8.961   8.548  65.739  1.00  0.00    -0.182 A  
HETATM   12  C   UNL     1      -9.107  10.790  64.764  1.00  0.00    -0.200 A  
HETATM   13  C   UNL     1      -8.609  11.215  62.359  1.00  0.00    -0.307 C  
HETATM   14  C   UNL     1      -8.523   8.062  64.476  1.00  0.00     0.025 A  
HETATM   15  C   UNL     1      -8.718  10.329  63.559  1.00  0.00    -0.210 A  
HETATM   16  C   UNL     1      -8.401   8.907  63.431  1.00  0.00    -0.177 A  
BRANCH   8  17
HETATM   17  C   UNL     1      -9.976   8.583  69.135  1.00  0.00    -0.194 A  
HETATM   18  C   UNL     1     -11.179   7.163  70.709  1.00  0.00    -0.309 A  
HETATM   19  C   UNL     1     -10.625   7.854  71.793  1.00  0.00    -0.276 A  
HETATM   20  C   UNL     1      -9.800   8.951  71.539  1.00  0.00    -0.384 A  
HETATM   21  C   UNL     1      -9.495   9.318  70.225  1.00  0.00    -0.277 A  
HETATM   22  C   UNL     1     -10.854   7.523  69.395  1.00  0.00    -0.161 A  
HETATM   23  C   UNL     1     -10.931   7.431  73.198  1.00  0.00    -0.408 C  
ENDBRANCH   8  17
ENDBRANCH   6   7
ENDBRANCH   3   6
TORSDOF 3
ENDMDL
MODEL      102
REMARK 921   NORMALIZED FREE ENERGY PREDICTED BY IDOCK:   -4.44 KCAL/MOL
REMARK 922        TOTAL FREE ENERGY PREDICTED BY IDOCK:   -6.07 KCAL/MOL
REMARK 923 INTER-LIGAND FREE ENERGY PREDICTED BY IDOCK:   -5.34 KCAL/MOL
REMARK 924 INTRA-LIGAND FREE ENERGY PREDICTED BY IDOCK:   -0.72 KCAL/MOL
REMARK 927      BINDING AFFINITY PREDICTED BY RF-SCORE:    0.00 PKD
ROOT
HETATM    1  C   UNL     1     -10.800  12.418  63.541  1.00  0.00    -0.438 C  
HETATM    2  N   UNL     1     -10.749  12.578  64.984  1.00  0.00    -0.285 N  
HETATM    3  C   UNL     1     -10.827  13.888  65.466  1.00  0.00    -0.306 C  
HETATM    4  C   UNL     1     -11.067  11.422  65.805  1.00  0.00    -0.153 C  
HETATM    5  O   UNL     1     -10.865  14.848  64.696  1.00  0.00    -0.370 OA 
ENDROOT
BRANCH   3   6
HETATM    6  C   UNL     1     -10.834  14.056  66.986  1.00  0.00    -0.291 C  
BRANCH   6   7
HETATM    7  C   UNL     1      -9.573  14.692  67.474  1.00  0.00    -0.206 A  
HETATM    8  C   UNL     1      -8.348  14.165  67.872  1.00  0.00    -0.162 A  
HETATM    9  N   UNL     1      -7.538  15.160  68.380  1.00  0.00    -0.113 NA 
HETATM   10  N   UNL     1      -9.435  16.062  67.621  1.00  0.00    -0.215 NA 
HETATM   11  C   UNL     1      -8.200  16.281  68.217  1.00  0.00    -0.173 A  
HETATM   12  C   UNL     1     -10.314  17.098  67.288  1.00  0.00    -0.320 A  
HETATM   13  C   UNL     1     -10.866  19.527  67.208  1.00  0.00    -0.557 C  
HETATM   14  C   UNL     1      -7.858  17.625  68.536  1.00  0.00    -0.282 A  
HETATM   15  C   UNL     1      -9.982  18.375  67.564  1.00  0.00    -0.349 A  
HETATM   16  C   UNL     1      -8.706  18.629  68.231  1.00  0.00    -0.349 A  
BRANCH   8  17
HETATM   17  C   UNL     1      -7.943  12.764  67.861  1.00  0.00    -0.158 A  
HETATM   18  C   UNL     1      -6.294  11.068  67.272  1.00  0.00    -0.069 A  
HETATM   19  C   UNL     1      -7.047  10.079  67.914  1.00  0.00    -0.085 A  
HETATM   20  C   UNL     1      -8.280  10.427  68.470  1.00  0.00    -0.119 A  
HETATM   21  C   UNL     1      -8.727  11.751  68.426  1.00  0.00    -0.155 A  
HETATM   22  C   UNL     1      -6.737  12.397  67.249  1.00  0.00    -0.133 A  
HETATM   23  C   UNL     1      -6.544   8.668  67.985  1.00  0.00    -0.058 C  
ENDBRANCH   8  17
ENDBRANCH   6   7
ENDBRANCH   3   6
TORSDOF 3
ENDMDL
MODEL      103
REMARK 921   NORMALIZED FREE ENERGY PREDICTED BY IDOCK:   -4.43 KCAL/MOL
REMARK 922        TOTAL FREE ENERGY PREDICTED BY IDOCK:   -6.05 KCAL/MOL
REMARK 923 INTER-LIGAND FREE ENERGY PREDICTED BY IDOCK:   -5.37 KCAL/MOL
REMARK 924 INTRA-LIGAND FREE ENERGY PREDICTED BY IDOCK:   -0.69 KCAL/MOL
REMARK 927      BINDING AFFINITY PREDICTED BY RF-SCORE:    0.00 PKD
ROOT
HETATM    1  C   UNL     1      -6.093   9.692  67.601  1.00  0.00    -0.052 C  
HETATM    2  N   UNL     1      -7.260  10.368  67.062  1.00  0.00    -0.090 N  
HETATM    3  C   UNL     1      -7.758  11.438  67.810  1.00  0.00    -0.115 C  
HETATM    4  C   UNL     1      -7.541  10.205  65.645  1.00  0.00    -0.144 C  
HETATM    5  O   UNL     1      -7.267  11.736  68.900  1.00  0.00    -0.108 OA 
ENDROOT
BRANCH   3   6
HETATM    6  C   UNL     1      -8.949  12.191  67.215  1.00  0.00    -0.184 C  
BRANCH   6   7
HETATM    7  C   UNL     1     -10.072  12.303  68.195  1.00  0.00    -0.211 A  
HETATM    8  C   UNL     1     -10.846  11.350  68.851  1.00  0.00    -0.215 A  
HETATM    9  N   UNL     1     -11.864  11.959  69.555  1.00  0.00    -0.324 NA 
HETATM   10  N   UNL     1     -10.561  13.522  68.634  1.00  0.00    -0.248 NA 
HETATM   11  C   UNL     1     -11.674  13.251  69.418  1.00  0.00    -0.325 A  
HETATM   12  C   UNL     1     -10.108  14.821  68.378  1.00  0.00    -0.225 A  
HETATM   13  C   UNL     1     -10.326  17.286  68.672  1.00  0.00    -0.357 C  
HETATM   14  C   UNL     1     -12.397  14.362  69.932  1.00  0.00    -0.365 A  
HETATM   15  C   UNL     1     -10.775  15.876  68.886  1.00  0.00    -0.254 A  
HETATM   16  C   UNL     1     -11.976  15.619  69.679  1.00  0.00    -0.367 A  
BRANCH   8  17
HETATM   17  C   UNL     1     -10.709   9.900  68.781  1.00  0.00    -0.247 A  
HETATM   18  C   UNL     1     -10.530   7.879  67.431  1.00  0.00    -0.360 A  
HETATM   19  C   UNL     1     -10.324   7.103  68.577  1.00  0.00    -0.203 A  
HETATM   20  C   UNL     1     -10.378   7.722  69.827  1.00  0.00    -0.221 A  
HETATM   21  C   UNL     1     -10.586   9.102  69.924  1.00  0.00    -0.246 A  
HETATM   22  C   UNL     1     -10.717   9.263  67.533  1.00  0.00    -0.272 A  
HETATM   23  C   UNL     1     -10.069   5.629  68.460  1.00  0.00    -0.236 C  
ENDBRANCH   8  17
ENDBRANCH   6   7
ENDBRANCH   3   6
TORSDOF 3
ENDMDL
MODEL      104
REMARK 921   NORMALIZED FREE ENERGY PREDICTED BY IDOCK:   -4.42 KCAL/MOL
REMARK 922        TOTAL FREE ENERGY PREDICTED BY IDOCK:   -6.03 KCAL/MOL
REMARK 923 INTER-LIGAND FREE ENERGY PREDICTED BY IDOCK:   -5.30 KCAL/MOL
REMARK 924 INTRA-LIGAND FREE ENERGY PREDICTED BY IDOCK:   -0.73 KCAL/MOL
REMARK 927      BINDING AFFINITY PREDICTED BY RF-SCORE:    0.00 PKD
ROOT
HETATM    1  C   UNL     1     -12.209  13.834  70.502  1.00  0.00    -0.369 C  
HETATM    2  N   UNL     1     -11.673  13.775  69.153  1.00  0.00    -0.310 N  
HETATM    3  C   UNL     1     -10.637  14.665  68.858  1.00  0.00    -0.253 C  
HETATM    4  C   UNL     1     -11.909  12.565  68.385  1.00  0.00    -0.304 C  
HETATM    5  O   UNL     1     -10.256  15.496  69.683  1.00  0.00    -0.253 OA 
ENDROOT
BRANCH   3   6
HETATM    6  C   UNL     1     -10.030  14.564  67.458  1.00  0.00    -0.224 C  
BRANCH   6   7
HETATM    7  C   UNL     1      -8.554  14.340  67.514  1.00  0.00    -0.196 A  
HETATM    8  C   UNL     1      -7.468  15.209  67.454  1.00  0.00    -0.210 A  
HETATM    9  N   UNL     1      -6.286  14.499  67.405  1.00  0.00    -0.313 NA 
HETATM   10  N   UNL     1      -7.994  13.080  67.645  1.00  0.00    -0.155 NA 
HETATM   11  C   UNL     1      -6.619  13.235  67.525  1.00  0.00    -0.143 A  
HETATM   12  C   UNL     1      -8.605  11.837  67.840  1.00  0.00    -0.156 A  
HETATM   13  C   UNL     1      -8.444   9.367  68.132  1.00  0.00    -0.120 C  
HETATM   14  C   UNL     1      -5.824  12.057  67.557  1.00  0.00    -0.109 A  
HETATM   15  C   UNL     1      -7.853  10.721  67.898  1.00  0.00    -0.109 A  
HETATM   16  C   UNL     1      -6.406  10.852  67.731  1.00  0.00    -0.062 A  
BRANCH   8  17
HETATM   17  C   UNL     1      -7.505  16.664  67.367  1.00  0.00    -0.188 A  
HETATM   18  C   UNL     1      -7.699  18.821  68.485  1.00  0.00    -0.357 A  
HETATM   19  C   UNL     1      -7.465  19.494  67.280  1.00  0.00    -0.260 A  
HETATM   20  C   UNL     1      -7.317  18.745  66.111  1.00  0.00    -0.292 A  
HETATM   21  C   UNL     1      -7.355  17.348  66.156  1.00  0.00    -0.331 A  
HETATM   22  C   UNL     1      -7.715  17.421  68.527  1.00  0.00    -0.267 A  
HETATM   23  C   UNL     1      -7.392  20.991  67.248  1.00  0.00    -0.320 C  
ENDBRANCH   8  17
ENDBRANCH   6   7
ENDBRANCH   3   6
TORSDOF 3
ENDMDL
MODEL      105
REMARK 921   NORMALIZED FREE ENERGY PREDICTED BY IDOCK:   -4.39 KCAL/MOL
REMARK 922        TOTAL FREE ENERGY PREDICTED BY IDOCK:   -6.00 KCAL/MOL
REMARK 923 INTER-LIGAND FREE ENERGY PREDICTED BY IDOCK:   -5.27 KCAL/MOL
REMARK 924 INTRA-LIGAND FREE ENERGY PREDICTED BY IDOCK:   -0.73 KCAL/MOL
REMARK 927      BINDING AFFINITY PREDICTED BY RF-SCORE:    0.00 PKD
ROOT
HETATM    1  C   UNL     1     -12.213  14.944  64.236  1.00  0.00    -0.344 C  
HETATM    2  N   UNL     1     -11.717  14.370  65.474  1.00  0.00    -0.347 N  
HETATM    3  C   UNL     1     -10.817  15.152  66.204  1.00  0.00    -0.330 C  
HETATM    4  C   UNL     1     -12.487  13.294  66.077  1.00  0.00    -0.321 C  
HETATM    5  O   UNL     1     -10.420  16.235  65.773  1.00  0.00    -0.347 OA 
ENDROOT
BRANCH   3   6
HETATM    6  C   UNL     1     -10.340  14.576  67.538  1.00  0.00    -0.244 C  
BRANCH   6   7
HETATM    7  C   UNL     1      -8.980  13.968  67.418  1.00  0.00    -0.206 A  
HETATM    8  C   UNL     1      -7.700  14.511  67.463  1.00  0.00    -0.188 A  
HETATM    9  N   UNL     1      -6.758  13.550  67.157  1.00  0.00    -0.078 NA 
HETATM   10  N   UNL     1      -8.784  12.612  67.215  1.00  0.00    -0.190 NA 
HETATM   11  C   UNL     1      -7.422  12.427  67.017  1.00  0.00    -0.034 A  
HETATM   12  C   UNL     1      -9.708  11.562  67.177  1.00  0.00    -0.183 A  
HETATM   13  C   UNL     1     -10.223   9.140  66.891  1.00  0.00    -0.336 C  
HETATM   14  C   UNL     1      -6.979  11.109  66.716  1.00  0.00    -0.137 A  
HETATM   15  C   UNL     1      -9.289  10.308  66.919  1.00  0.00    -0.183 A  
HETATM   16  C   UNL     1      -7.865  10.093  66.664  1.00  0.00    -0.110 A  
BRANCH   8  17
HETATM   17  C   UNL     1      -7.338  15.902  67.709  1.00  0.00    -0.162 A  
HETATM   18  C   UNL     1      -7.088  18.178  66.872  1.00  0.00    -0.217 A  
HETATM   19  C   UNL     1      -6.765  18.639  68.154  1.00  0.00    -0.235 A  
HETATM   20  C   UNL     1      -6.666  17.715  69.196  1.00  0.00    -0.243 A  
HETATM   21  C   UNL     1      -6.933  16.361  68.968  1.00  0.00    -0.200 A  
HETATM   22  C   UNL     1      -7.374  16.824  66.655  1.00  0.00    -0.297 A  
HETATM   23  C   UNL     1      -6.514  20.098  68.394  1.00  0.00    -0.336 C  
ENDBRANCH   8  17
ENDBRANCH   6   7
ENDBRANCH   3   6
TORSDOF 3
ENDMDL
MODEL      106
REMARK 921   NORMALIZED FREE ENERGY PREDICTED BY IDOCK:   -4.34 KCAL/MOL
REMARK 922        TOTAL FREE ENERGY PREDICTED BY IDOCK:   -5.95 KCAL/MOL
REMARK 923 INTER-LIGAND FREE ENERGY PREDICTED BY IDOCK:   -5.51 KCAL/MOL
REMARK 924 INTRA-LIGAND FREE ENERGY PREDICTED BY IDOCK:   -0.43 KCAL/MOL
REMARK 927      BINDING AFFINITY PREDICTED BY RF-SCORE:    0.00 PKD
ROOT
HETATM    1  C   UNL     1     -11.610  10.397  70.708  1.00  0.00    -0.358 C  
HETATM    2  N   UNL     1     -10.616  10.511  69.656  1.00  0.00    -0.247 N  
HETATM    3  C   UNL     1     -10.709  11.639  68.834  1.00  0.00    -0.207 C  
HETATM    4  C   UNL     1      -9.389   9.745  69.798  1.00  0.00    -0.226 C  
HETATM    5  O   UNL     1     -11.630  12.446  68.963  1.00  0.00    -0.268 OA 
ENDROOT
BRANCH   3   6
HETATM    6  C   UNL     1      -9.628  11.794  67.764  1.00  0.00    -0.184 C  
BRANCH   6   7
HETATM    7  C   UNL     1      -9.756  13.094  67.039  1.00  0.00    -0.241 A  
HETATM    8  C   UNL     1      -9.132  14.327  67.202  1.00  0.00    -0.228 A  
HETATM    9  N   UNL     1      -9.700  15.268  66.367  1.00  0.00    -0.266 NA 
HETATM   10  N   UNL     1     -10.627  13.274  65.977  1.00  0.00    -0.282 NA 
HETATM   11  C   UNL     1     -10.583  14.621  65.643  1.00  0.00    -0.332 A  
HETATM   12  C   UNL     1     -11.446  12.352  65.315  1.00  0.00    -0.344 A  
HETATM   13  C   UNL     1     -13.132  11.826  63.557  1.00  0.00    -0.055 C  
HETATM   14  C   UNL     1     -11.455  15.067  64.611  1.00  0.00    -0.382 A  
HETATM   15  C   UNL     1     -12.254  12.766  64.319  1.00  0.00    -0.499 A  
HETATM   16  C   UNL     1     -12.259  14.188  63.978  1.00  0.00    -0.369 A  
BRANCH   8  17
HETATM   17  C   UNL     1      -8.083  14.667  68.156  1.00  0.00    -0.137 A  
HETATM   18  C   UNL     1      -6.892  16.363  69.438  1.00  0.00    -0.217 A  
HETATM   19  C   UNL     1      -6.143  15.378  70.092  1.00  0.00    -0.132 A  
HETATM   20  C   UNL     1      -6.323  14.043  69.724  1.00  0.00    -0.134 A  
HETATM   21  C   UNL     1      -7.271  13.698  68.755  1.00  0.00    -0.100 A  
HETATM   22  C   UNL     1      -7.853  16.010  68.483  1.00  0.00    -0.160 A  
HETATM   23  C   UNL     1      -5.154  15.755  71.154  1.00  0.00    -0.146 C  
ENDBRANCH   8  17
ENDBRANCH   6   7
ENDBRANCH   3   6
TORSDOF 3
ENDMDL
MODEL      107
REMARK 921   NORMALIZED FREE ENERGY PREDICTED BY IDOCK:   -4.29 KCAL/MOL
REMARK 922        TOTAL FREE ENERGY PREDICTED BY IDOCK:   -5.89 KCAL/MOL
REMARK 923 INTER-LIGAND FREE ENERGY PREDICTED BY IDOCK:   -5.43 KCAL/MOL
REMARK 924 INTRA-LIGAND FREE ENERGY PREDICTED BY IDOCK:   -0.46 KCAL/MOL
REMARK 927      BINDING AFFINITY PREDICTED BY RF-SCORE:    0.00 PKD
ROOT
HETATM    1  C   UNL     1     -13.119   7.038  71.818  1.00  0.00    -0.290 C  
HETATM    2  N   UNL     1     -12.546   8.372  71.805  1.00  0.00    -0.327 N  
HETATM    3  C   UNL     1     -11.559   8.615  70.845  1.00  0.00    -0.269 C  
HETATM    4  C   UNL     1     -13.303   9.440  72.436  1.00  0.00    -0.424 C  
HETATM    5  O   UNL     1     -11.159   7.717  70.103  1.00  0.00    -0.257 OA 
ENDROOT
BRANCH   3   6
HETATM    6  C   UNL     1     -10.996  10.036  70.789  1.00  0.00    -0.375 C  
BRANCH   6   7
HETATM    7  C   UNL     1      -9.724  10.091  70.007  1.00  0.00    -0.175 A  
HETATM    8  C   UNL     1      -9.389  10.694  68.798  1.00  0.00    -0.180 A  
HETATM    9  N   UNL     1      -8.111  10.336  68.420  1.00  0.00    -0.106 NA 
HETATM   10  N   UNL     1      -8.561   9.468  70.428  1.00  0.00    -0.212 NA 
HETATM   11  C   UNL     1      -7.634   9.611  69.405  1.00  0.00    -0.097 A  
HETATM   12  C   UNL     1      -8.282   8.786  71.618  1.00  0.00    -0.110 A  
HETATM   13  C   UNL     1      -6.707   7.497  73.056  1.00  0.00    -0.066 C  
HETATM   14  C   UNL     1      -6.368   8.985  69.578  1.00  0.00    -0.043 A  
HETATM   15  C   UNL     1      -7.075   8.215  71.797  1.00  0.00    -0.080 A  
HETATM   16  C   UNL     1      -6.095   8.314  70.715  1.00  0.00    -0.033 A  
BRANCH   8  17
HETATM   17  C   UNL     1     -10.243  11.526  67.959  1.00  0.00    -0.205 A  
HETATM   18  C   UNL     1     -11.373  13.653  67.585  1.00  0.00    -0.328 A  
HETATM   19  C   UNL     1     -11.798  13.231  66.320  1.00  0.00    -0.444 A  
HETATM   20  C   UNL     1     -11.498  11.931  65.908  1.00  0.00    -0.340 A  
HETATM   21  C   UNL     1     -10.744  11.086  66.729  1.00  0.00    -0.319 A  
HETATM   22  C   UNL     1     -10.602  12.809  68.394  1.00  0.00    -0.262 A  
HETATM   23  C   UNL     1     -12.577  14.157  65.433  1.00  0.00    -0.485 C  
ENDBRANCH   8  17
ENDBRANCH   6   7
ENDBRANCH   3   6
TORSDOF 3
ENDMDL
MODEL      108
REMARK 921   NORMALIZED FREE ENERGY PREDICTED BY IDOCK:   -4.29 KCAL/MOL
REMARK 922        TOTAL FREE ENERGY PREDICTED BY IDOCK:   -5.89 KCAL/MOL
REMARK 923 INTER-LIGAND FREE ENERGY PREDICTED BY IDOCK:   -5.16 KCAL/MOL
REMARK 924 INTRA-LIGAND FREE ENERGY PREDICTED BY IDOCK:   -0.72 KCAL/MOL
REMARK 927      BINDING AFFINITY PREDICTED BY RF-SCORE:    0.00 PKD
ROOT
HETATM    1  C   UNL     1     -12.541  13.677  70.929  1.00  0.00    -0.346 C  
HETATM    2  N   UNL     1     -11.935  13.447  69.629  1.00  0.00    -0.324 N  
HETATM    3  C   UNL     1     -11.063  14.437  69.167  1.00  0.00    -0.265 C  
HETATM    4  C   UNL     1     -11.909  12.084  69.126  1.00  0.00    -0.311 C  
HETATM    5  O   UNL     1     -10.882  15.474  69.806  1.00  0.00    -0.249 OA 
ENDROOT
BRANCH   3   6
HETATM    6  C   UNL     1     -10.377  14.171  67.826  1.00  0.00    -0.242 C  
BRANCH   6   7
HETATM    7  C   UNL     1      -8.895  14.328  67.928  1.00  0.00    -0.179 A  
HETATM    8  C   UNL     1      -8.059  15.438  67.842  1.00  0.00    -0.140 A  
HETATM    9  N   UNL     1      -6.736  15.047  67.859  1.00  0.00    -0.140 NA 
HETATM   10  N   UNL     1      -8.043  13.258  68.142  1.00  0.00    -0.150 NA 
HETATM   11  C   UNL     1      -6.747  13.747  68.043  1.00  0.00    -0.139 A  
HETATM   12  C   UNL     1      -8.330  11.911  68.393  1.00  0.00    -0.157 A  
HETATM   13  C   UNL     1      -7.567   9.579  68.827  1.00  0.00    -0.076 C  
HETATM   14  C   UNL     1      -5.684  12.810  68.159  1.00  0.00    -0.083 A  
HETATM   15  C   UNL     1      -7.325  11.025  68.530  1.00  0.00    -0.101 A  
HETATM   16  C   UNL     1      -5.952  11.508  68.387  1.00  0.00    -0.045 A  
BRANCH   8  17
HETATM   17  C   UNL     1      -8.456  16.831  67.673  1.00  0.00    -0.197 A  
HETATM   18  C   UNL     1      -9.738  18.508  66.455  1.00  0.00    -0.347 A  
HETATM   19  C   UNL     1      -9.356  19.498  67.366  1.00  0.00    -0.405 A  
HETATM   20  C   UNL     1      -8.469  19.162  68.391  1.00  0.00    -0.384 A  
HETATM   21  C   UNL     1      -8.013  17.846  68.529  1.00  0.00    -0.302 A  
HETATM   22  C   UNL     1      -9.294  17.188  66.609  1.00  0.00    -0.277 A  
HETATM   23  C   UNL     1      -9.877  20.898  67.230  1.00  0.00    -0.300 C  
ENDBRANCH   8  17
ENDBRANCH   6   7
ENDBRANCH   3   6
TORSDOF 3
ENDMDL
MODEL      109
REMARK 921   NORMALIZED FREE ENERGY PREDICTED BY IDOCK:   -4.28 KCAL/MOL
REMARK 922        TOTAL FREE ENERGY PREDICTED BY IDOCK:   -5.87 KCAL/MOL
REMARK 923 INTER-LIGAND FREE ENERGY PREDICTED BY IDOCK:   -5.32 KCAL/MOL
REMARK 924 INTRA-LIGAND FREE ENERGY PREDICTED BY IDOCK:   -0.55 KCAL/MOL
REMARK 927      BINDING AFFINITY PREDICTED BY RF-SCORE:    0.00 PKD
ROOT
HETATM    1  C   UNL     1     -12.480  14.095  70.935  1.00  0.00    -0.365 C  
HETATM    2  N   UNL     1     -11.752  14.198  69.682  1.00  0.00    -0.297 N  
HETATM    3  C   UNL     1     -10.859  15.267  69.569  1.00  0.00    -0.271 C  
HETATM    4  C   UNL     1     -11.653  13.005  68.858  1.00  0.00    -0.311 C  
HETATM    5  O   UNL     1     -10.757  16.109  70.462  1.00  0.00    -0.237 OA 
ENDROOT
BRANCH   3   6
HETATM    6  C   UNL     1     -10.047  15.344  68.275  1.00  0.00    -0.218 C  
BRANCH   6   7
HETATM    7  C   UNL     1      -8.725  16.006  68.496  1.00  0.00    -0.195 A  
HETATM    8  C   UNL     1      -7.486  15.519  68.902  1.00  0.00    -0.158 A  
HETATM    9  N   UNL     1      -6.600  16.560  69.095  1.00  0.00    -0.187 NA 
HETATM   10  N   UNL     1      -8.530  17.364  68.309  1.00  0.00    -0.242 NA 
HETATM   11  C   UNL     1      -7.238  17.648  68.732  1.00  0.00    -0.268 A  
HETATM   12  C   UNL     1      -9.402  18.342  67.818  1.00  0.00    -0.274 A  
HETATM   13  C   UNL     1      -9.880  20.714  67.222  1.00  0.00    -0.529 C  
HETATM   14  C   UNL     1      -6.825  19.008  68.701  1.00  0.00    -0.311 A  
HETATM   15  C   UNL     1      -9.004  19.628  67.762  1.00  0.00    -0.385 A  
HETATM   16  C   UNL     1      -7.664  19.960  68.243  1.00  0.00    -0.295 A  
BRANCH   8  17
HETATM   17  C   UNL     1      -7.130  14.133  69.182  1.00  0.00    -0.099 A  
HETATM   18  C   UNL     1      -7.347  11.767  68.639  1.00  0.00    -0.115 A  
HETATM   19  C   UNL     1      -6.385  11.434  69.599  1.00  0.00    -0.127 A  
HETATM   20  C   UNL     1      -5.849  12.449  70.394  1.00  0.00    -0.149 A  
HETATM   21  C   UNL     1      -6.232  13.779  70.196  1.00  0.00    -0.110 A  
HETATM   22  C   UNL     1      -7.712  13.103  68.432  1.00  0.00    -0.138 A  
HETATM   23  C   UNL     1      -5.956  10.008  69.781  1.00  0.00    -0.045 C  
ENDBRANCH   8  17
ENDBRANCH   6   7
ENDBRANCH   3   6
TORSDOF 3
ENDMDL
MODEL      110
REMARK 921   NORMALIZED FREE ENERGY PREDICTED BY IDOCK:   -4.28 KCAL/MOL
REMARK 922        TOTAL FREE ENERGY PREDICTED BY IDOCK:   -5.87 KCAL/MOL
REMARK 923 INTER-LIGAND FREE ENERGY PREDICTED BY IDOCK:   -5.13 KCAL/MOL
REMARK 924 INTRA-LIGAND FREE ENERGY PREDICTED BY IDOCK:   -0.74 KCAL/MOL
REMARK 927      BINDING AFFINITY PREDICTED BY RF-SCORE:    0.00 PKD
ROOT
HETATM    1  C   UNL     1     -12.513  13.839  66.071  1.00  0.00    -0.445 C  
HETATM    2  N   UNL     1     -11.075  13.793  65.875  1.00  0.00    -0.285 N  
HETATM    3  C   UNL     1     -10.310  13.416  66.982  1.00  0.00    -0.247 C  
HETATM    4  C   UNL     1     -10.581  13.697  64.512  1.00  0.00    -0.411 C  
HETATM    5  O   UNL     1     -10.833  13.204  68.076  1.00  0.00    -0.230 OA 
ENDROOT
BRANCH   3   6
HETATM    6  C   UNL     1      -8.800  13.308  66.762  1.00  0.00    -0.140 C  
BRANCH   6   7
HETATM    7  C   UNL     1      -8.036  13.823  67.939  1.00  0.00    -0.157 A  
HETATM    8  C   UNL     1      -7.867  15.101  68.464  1.00  0.00    -0.135 A  
HETATM    9  N   UNL     1      -6.944  15.083  69.489  1.00  0.00    -0.174 NA 
HETATM   10  N   UNL     1      -7.294  12.998  68.767  1.00  0.00    -0.094 NA 
HETATM   11  C   UNL     1      -6.618  13.822  69.657  1.00  0.00    -0.061 A  
HETATM   12  C   UNL     1      -7.167  11.604  68.774  1.00  0.00    -0.116 A  
HETATM   13  C   UNL     1      -6.186   9.525  69.735  1.00  0.00    -0.040 C  
HETATM   14  C   UNL     1      -5.727  13.201  70.574  1.00  0.00    -0.176 A  
HETATM   15  C   UNL     1      -6.344  11.010  69.660  1.00  0.00    -0.106 A  
HETATM   16  C   UNL     1      -5.587  11.859  70.579  1.00  0.00    -0.162 A  
BRANCH   8  17
HETATM   17  C   UNL     1      -8.482  16.337  67.994  1.00  0.00    -0.174 A  
HETATM   18  C   UNL     1      -9.900  18.269  68.439  1.00  0.00    -0.386 A  
HETATM   19  C   UNL     1      -9.607  18.805  67.180  1.00  0.00    -0.328 A  
HETATM   20  C   UNL     1      -8.803  18.069  66.307  1.00  0.00    -0.194 A  
HETATM   21  C   UNL     1      -8.263  16.842  66.707  1.00  0.00    -0.275 A  
HETATM   22  C   UNL     1      -9.341  17.049  68.841  1.00  0.00    -0.224 A  
HETATM   23  C   UNL     1     -10.163  20.137  66.774  1.00  0.00    -0.562 C  
ENDBRANCH   8  17
ENDBRANCH   6   7
ENDBRANCH   3   6
TORSDOF 3
ENDMDL
MODEL      111
REMARK 921   NORMALIZED FREE ENERGY PREDICTED BY IDOCK:   -4.25 KCAL/MOL
REMARK 922        TOTAL FREE ENERGY PREDICTED BY IDOCK:   -5.83 KCAL/MOL
REMARK 923 INTER-LIGAND FREE ENERGY PREDICTED BY IDOCK:   -5.01 KCAL/MOL
REMARK 924 INTRA-LIGAND FREE ENERGY PREDICTED BY IDOCK:   -0.82 KCAL/MOL
REMARK 927      BINDING AFFINITY PREDICTED BY RF-SCORE:    0.00 PKD
ROOT
HETATM    1  C   UNL     1     -11.788  13.383  70.216  1.00  0.00    -0.245 C  
HETATM    2  N   UNL     1     -12.079  12.058  69.698  1.00  0.00    -0.264 N  
HETATM    3  C   UNL     1     -11.354  11.659  68.571  1.00  0.00    -0.274 C  
HETATM    4  C   UNL     1     -12.723  11.109  70.590  1.00  0.00    -0.263 C  
HETATM    5  O   UNL     1     -10.566  12.426  68.017  1.00  0.00    -0.209 OA 
ENDROOT
BRANCH   3   6
HETATM    6  C   UNL     1     -11.615  10.242  68.058  1.00  0.00     0.105 C  
BRANCH   6   7
HETATM    7  C   UNL     1     -10.344   9.555  67.674  1.00  0.00    -0.244 A  
HETATM    8  C   UNL     1      -9.480   8.718  68.373  1.00  0.00    -0.141 A  
HETATM    9  N   UNL     1      -8.354   8.452  67.621  1.00  0.00    -0.129 NA 
HETATM   10  N   UNL     1      -9.780   9.678  66.416  1.00  0.00    -0.206 NA 
HETATM   11  C   UNL     1      -8.554   9.027  66.458  1.00  0.00    -0.120 A  
HETATM   12  C   UNL     1     -10.259  10.325  65.271  1.00  0.00    -0.238 A  
HETATM   13  C   UNL     1      -9.976  11.002  62.889  1.00  0.00    -0.272 C  
HETATM   14  C   UNL     1      -7.747   9.077  65.288  1.00  0.00    -0.100 A  
HETATM   15  C   UNL     1      -9.509  10.351  64.152  1.00  0.00    -0.353 A  
HETATM   16  C   UNL     1      -8.195   9.711  64.184  1.00  0.00    -0.158 A  
BRANCH   8  17
HETATM   17  C   UNL     1      -9.638   8.224  69.736  1.00  0.00    -0.171 A  
HETATM   18  C   UNL     1      -9.607   8.657  72.135  1.00  0.00    -0.378 A  
HETATM   19  C   UNL     1     -10.047   7.355  72.399  1.00  0.00    -0.228 A  
HETATM   20  C   UNL     1     -10.216   6.473  71.331  1.00  0.00    -0.221 A  
HETATM   21  C   UNL     1      -9.997   6.901  70.018  1.00  0.00    -0.190 A  
HETATM   22  C   UNL     1      -9.408   9.086  70.816  1.00  0.00    -0.305 A  
HETATM   23  C   UNL     1     -10.313   6.916  73.809  1.00  0.00    -0.409 C  
ENDBRANCH   8  17
ENDBRANCH   6   7
ENDBRANCH   3   6
TORSDOF 3
ENDMDL
MODEL      112
REMARK 921   NORMALIZED FREE ENERGY PREDICTED BY IDOCK:   -4.23 KCAL/MOL
REMARK 922        TOTAL FREE ENERGY PREDICTED BY IDOCK:   -5.82 KCAL/MOL
REMARK 923 INTER-LIGAND FREE ENERGY PREDICTED BY IDOCK:   -4.95 KCAL/MOL
REMARK 924 INTRA-LIGAND FREE ENERGY PREDICTED BY IDOCK:   -0.86 KCAL/MOL
REMARK 927      BINDING AFFINITY PREDICTED BY RF-SCORE:    0.00 PKD
ROOT
HETATM    1  C   UNL     1     -13.220   7.631  71.487  1.00  0.00    -0.334 C  
HETATM    2  N   UNL     1     -11.839   8.017  71.253  1.00  0.00    -0.292 N  
HETATM    3  C   UNL     1     -11.119   7.227  70.352  1.00  0.00    -0.268 C  
HETATM    4  C   UNL     1     -11.451   9.377  71.586  1.00  0.00    -0.393 C  
HETATM    5  O   UNL     1     -11.618   6.222  69.846  1.00  0.00    -0.435 OA 
ENDROOT
BRANCH   3   6
HETATM    6  C   UNL     1      -9.684   7.666  70.057  1.00  0.00    -0.172 C  
BRANCH   6   7
HETATM    7  C   UNL     1      -9.420   7.726  68.588  1.00  0.00    -0.152 A  
HETATM    8  C   UNL     1      -9.530   8.753  67.654  1.00  0.00    -0.141 A  
HETATM    9  N   UNL     1      -9.305   8.271  66.381  1.00  0.00    -0.200 NA 
HETATM   10  N   UNL     1      -8.980   6.632  67.863  1.00  0.00    -0.114 NA 
HETATM   11  C   UNL     1      -8.974   7.010  66.526  1.00  0.00    -0.147 A  
HETATM   12  C   UNL     1      -8.611   5.353  68.293  1.00  0.00    -0.096 A  
HETATM   13  C   UNL     1      -7.818   3.044  67.790  1.00  0.00    -0.067 C  
HETATM   14  C   UNL     1      -8.621   6.019  65.569  1.00  0.00    -0.145 A  
HETATM   15  C   UNL     1      -8.249   4.419  67.391  1.00  0.00    -0.100 A  
HETATM   16  C   UNL     1      -8.277   4.779  65.974  1.00  0.00    -0.111 A  
BRANCH   8  17
HETATM   17  C   UNL     1      -9.908  10.139  67.906  1.00  0.00    -0.176 A  
HETATM   18  C   UNL     1     -11.634  11.770  68.453  1.00  0.00    -0.380 A  
HETATM   19  C   UNL     1     -10.680  12.792  68.520  1.00  0.00    -0.275 A  
HETATM   20  C   UNL     1      -9.352  12.493  68.213  1.00  0.00    -0.193 A  
HETATM   21  C   UNL     1      -8.977  11.184  67.893  1.00  0.00    -0.143 A  
HETATM   22  C   UNL     1     -11.249  10.457  68.152  1.00  0.00    -0.333 A  
HETATM   23  C   UNL     1     -11.087  14.186  68.897  1.00  0.00    -0.288 C  
ENDBRANCH   8  17
ENDBRANCH   6   7
ENDBRANCH   3   6
TORSDOF 3
ENDMDL
MODEL      113
REMARK 921   NORMALIZED FREE ENERGY PREDICTED BY IDOCK:   -4.19 KCAL/MOL
REMARK 922        TOTAL FREE ENERGY PREDICTED BY IDOCK:   -5.77 KCAL/MOL
REMARK 923 INTER-LIGAND FREE ENERGY PREDICTED BY IDOCK:   -4.97 KCAL/MOL
REMARK 924 INTRA-LIGAND FREE ENERGY PREDICTED BY IDOCK:   -0.80 KCAL/MOL
REMARK 927      BINDING AFFINITY PREDICTED BY RF-SCORE:    0.00 PKD
ROOT
HETATM    1  C   UNL     1      -8.728  12.793  67.041  1.00  0.00    -0.197 C  
HETATM    2  N   UNL     1      -9.776  11.798  66.901  1.00  0.00    -0.195 N  
HETATM    3  C   UNL     1      -9.517  10.542  67.457  1.00  0.00    -0.149 C  
HETATM    4  C   UNL     1     -11.123  12.268  66.622  1.00  0.00    -0.297 C  
HETATM    5  O   UNL     1      -8.429  10.286  67.973  1.00  0.00    -0.116 OA 
ENDROOT
BRANCH   3   6
HETATM    6  C   UNL     1     -10.642   9.510  67.365  1.00  0.00    -0.337 C  
BRANCH   6   7
HETATM    7  C   UNL     1     -10.678   8.628  68.571  1.00  0.00    -0.043 A  
HETATM    8  C   UNL     1     -10.195   7.345  68.812  1.00  0.00    -0.191 A  
HETATM    9  N   UNL     1     -10.605   6.902  70.053  1.00  0.00    -0.217 NA 
HETATM   10  N   UNL     1     -11.276   9.012  69.760  1.00  0.00    -0.102 NA 
HETATM   11  C   UNL     1     -11.242   7.909  70.603  1.00  0.00    -0.263 A  
HETATM   12  C   UNL     1     -11.849  10.234  70.129  1.00  0.00    -0.263 A  
HETATM   13  C   UNL     1     -13.021  11.657  71.805  1.00  0.00    -0.483 C  
HETATM   14  C   UNL     1     -11.867   8.039  71.874  1.00  0.00    -0.353 A  
HETATM   15  C   UNL     1     -12.418  10.369  71.342  1.00  0.00    -0.521 A  
HETATM   16  C   UNL     1     -12.434   9.209  72.232  1.00  0.00    -0.403 A  
BRANCH   8  17
HETATM   17  C   UNL     1      -9.432   6.502  67.898  1.00  0.00    -0.120 A  
HETATM   18  C   UNL     1      -7.295   5.537  67.235  1.00  0.00    -0.080 A  
HETATM   19  C   UNL     1      -7.918   4.786  66.232  1.00  0.00    -0.103 A  
HETATM   20  C   UNL     1      -9.289   4.948  66.025  1.00  0.00    -0.158 A  
HETATM   21  C   UNL     1     -10.031   5.810  66.839  1.00  0.00    -0.200 A  
HETATM   22  C   UNL     1      -8.046   6.384  68.060  1.00  0.00    -0.116 A  
HETATM   23  C   UNL     1      -7.120   3.839  65.386  1.00  0.00    -0.066 C  
ENDBRANCH   8  17
ENDBRANCH   6   7
ENDBRANCH   3   6
TORSDOF 3
ENDMDL
MODEL      114
REMARK 921   NORMALIZED FREE ENERGY PREDICTED BY IDOCK:   -4.18 KCAL/MOL
REMARK 922        TOTAL FREE ENERGY PREDICTED BY IDOCK:   -5.76 KCAL/MOL
REMARK 923 INTER-LIGAND FREE ENERGY PREDICTED BY IDOCK:   -5.09 KCAL/MOL
REMARK 924 INTRA-LIGAND FREE ENERGY PREDICTED BY IDOCK:   -0.67 KCAL/MOL
REMARK 927      BINDING AFFINITY PREDICTED BY RF-SCORE:    0.00 PKD
ROOT
HETATM    1  C   UNL     1     -10.116   5.712  67.949  1.00  0.00    -0.168 C  
HETATM    2  N   UNL     1      -9.545   6.885  68.589  1.00  0.00    -0.133 N  
HETATM    3  C   UNL     1     -10.111   8.116  68.246  1.00  0.00    -0.197 C  
HETATM    4  C   UNL     1      -8.785   6.686  69.811  1.00  0.00    -0.140 C  
HETATM    5  O   UNL     1     -10.998   8.194  67.395  1.00  0.00    -0.138 OA 
ENDROOT
BRANCH   3   6
HETATM    6  C   UNL     1      -9.553   9.346  68.962  1.00  0.00    -0.164 C  
BRANCH   6   7
HETATM    7  C   UNL     1     -10.071  10.613  68.362  1.00  0.00    -0.166 A  
HETATM    8  C   UNL     1      -9.853  11.228  67.133  1.00  0.00    -0.190 A  
HETATM    9  N   UNL     1     -10.453  12.471  67.104  1.00  0.00    -0.223 NA 
HETATM   10  N   UNL     1     -10.942  11.455  69.032  1.00  0.00    -0.223 NA 
HETATM   11  C   UNL     1     -11.100  12.585  68.240  1.00  0.00    -0.257 A  
HETATM   12  C   UNL     1     -11.574  11.301  70.271  1.00  0.00    -0.275 A  
HETATM   13  C   UNL     1     -13.083  12.167  72.055  1.00  0.00    -0.462 C  
HETATM   14  C   UNL     1     -11.906  13.637  68.756  1.00  0.00    -0.395 A  
HETATM   15  C   UNL     1     -12.360  12.284  70.751  1.00  0.00    -0.383 A  
HETATM   16  C   UNL     1     -12.507  13.503  69.956  1.00  0.00    -0.231 A  
BRANCH   8  17
HETATM   17  C   UNL     1      -9.049  10.728  66.024  1.00  0.00    -0.204 A  
HETATM   18  C   UNL     1      -8.935   9.842  63.756  1.00  0.00    -0.272 A  
HETATM   19  C   UNL     1      -7.537   9.859  63.794  1.00  0.00    -0.136 A  
HETATM   20  C   UNL     1      -6.901  10.248  64.975  1.00  0.00    -0.111 A  
HETATM   21  C   UNL     1      -7.653  10.661  66.080  1.00  0.00    -0.142 A  
HETATM   22  C   UNL     1      -9.682  10.275  64.859  1.00  0.00    -0.385 A  
HETATM   23  C   UNL     1      -6.740   9.447  62.592  1.00  0.00    -0.096 C  
ENDBRANCH   8  17
ENDBRANCH   6   7
ENDBRANCH   3   6
TORSDOF 3
ENDMDL
MODEL      115
REMARK 921   NORMALIZED FREE ENERGY PREDICTED BY IDOCK:   -4.18 KCAL/MOL
REMARK 922        TOTAL FREE ENERGY PREDICTED BY IDOCK:   -5.76 KCAL/MOL
REMARK 923 INTER-LIGAND FREE ENERGY PREDICTED BY IDOCK:   -5.00 KCAL/MOL
REMARK 924 INTRA-LIGAND FREE ENERGY PREDICTED BY IDOCK:   -0.76 KCAL/MOL
REMARK 927      BINDING AFFINITY PREDICTED BY RF-SCORE:    0.00 PKD
ROOT
HETATM    1  C   UNL     1     -13.072  10.858  71.871  1.00  0.00    -0.432 C  
HETATM    2  N   UNL     1     -12.197  10.145  70.958  1.00  0.00    -0.342 N  
HETATM    3  C   UNL     1     -11.943   8.804  71.262  1.00  0.00    -0.301 C  
HETATM    4  C   UNL     1     -12.021  10.692  69.623  1.00  0.00    -0.268 C  
HETATM    5  O   UNL     1     -12.388   8.289  72.287  1.00  0.00    -0.345 OA 
ENDROOT
BRANCH   3   6
HETATM    6  C   UNL     1     -11.070   8.034  70.270  1.00  0.00    -0.224 C  
BRANCH   6   7
HETATM    7  C   UNL     1      -9.675   7.870  70.779  1.00  0.00    -0.172 A  
HETATM    8  C   UNL     1      -9.073   6.905  71.581  1.00  0.00    -0.139 A  
HETATM    9  N   UNL     1      -7.781   7.275  71.892  1.00  0.00    -0.089 NA 
HETATM   10  N   UNL     1      -8.665   8.773  70.490  1.00  0.00    -0.158 NA 
HETATM   11  C   UNL     1      -7.555   8.385  71.230  1.00  0.00    -0.092 A  
HETATM   12  C   UNL     1      -8.667   9.894  69.653  1.00  0.00    -0.204 A  
HETATM   13  C   UNL     1      -7.496  11.856  68.659  1.00  0.00    -0.118 C  
HETATM   14  C   UNL     1      -6.398   9.210  71.153  1.00  0.00    -0.074 A  
HETATM   15  C   UNL     1      -7.565  10.662  69.556  1.00  0.00    -0.128 A  
HETATM   16  C   UNL     1      -6.397  10.300  70.359  1.00  0.00    -0.127 A  
BRANCH   8  17
HETATM   17  C   UNL     1      -9.687   5.697  72.120  1.00  0.00    -0.178 A  
HETATM   18  C   UNL     1     -10.006   3.283  72.006  1.00  0.00    -0.222 A  
HETATM   19  C   UNL     1     -10.752   3.302  73.189  1.00  0.00    -0.263 A  
HETATM   20  C   UNL     1     -11.019   4.530  73.797  1.00  0.00    -0.361 A  
HETATM   21  C   UNL     1     -10.505   5.713  73.256  1.00  0.00    -0.256 A  
HETATM   22  C   UNL     1      -9.477   4.469  71.480  1.00  0.00    -0.214 A  
HETATM   23  C   UNL     1     -11.270   2.024  73.780  1.00  0.00    -0.291 C  
ENDBRANCH   8  17
ENDBRANCH   6   7
ENDBRANCH   3   6
TORSDOF 3
ENDMDL
MODEL      116
REMARK 921   NORMALIZED FREE ENERGY PREDICTED BY IDOCK:   -4.14 KCAL/MOL
REMARK 922        TOTAL FREE ENERGY PREDICTED BY IDOCK:   -5.71 KCAL/MOL
REMARK 923 INTER-LIGAND FREE ENERGY PREDICTED BY IDOCK:   -5.16 KCAL/MOL
REMARK 924 INTRA-LIGAND FREE ENERGY PREDICTED BY IDOCK:   -0.56 KCAL/MOL
REMARK 927      BINDING AFFINITY PREDICTED BY RF-SCORE:    0.00 PKD
ROOT
HETATM    1  C   UNL     1     -12.155  13.994  64.390  1.00  0.00    -0.458 C  
HETATM    2  N   UNL     1     -11.870  14.024  65.814  1.00  0.00    -0.367 N  
HETATM    3  C   UNL     1     -11.423  12.828  66.382  1.00  0.00    -0.357 C  
HETATM    4  C   UNL     1     -11.636  15.319  66.430  1.00  0.00     0.007 C  
HETATM    5  O   UNL     1     -11.346  11.796  65.715  1.00  0.00    -0.318 OA 
ENDROOT
BRANCH   3   6
HETATM    6  C   UNL     1     -11.064  12.871  67.869  1.00  0.00    -0.283 C  
BRANCH   6   7
HETATM    7  C   UNL     1      -9.612  12.598  68.091  1.00  0.00    -0.219 A  
HETATM    8  C   UNL     1      -8.865  11.424  68.091  1.00  0.00    -0.162 A  
HETATM    9  N   UNL     1      -7.570  11.677  68.493  1.00  0.00    -0.121 NA 
HETATM   10  N   UNL     1      -8.698  13.601  68.367  1.00  0.00    -0.173 NA 
HETATM   11  C   UNL     1      -7.489  12.978  68.647  1.00  0.00    -0.093 A  
HETATM   12  C   UNL     1      -8.865  14.990  68.404  1.00  0.00    -0.178 A  
HETATM   13  C   UNL     1      -7.936  17.273  68.772  1.00  0.00    -0.250 C  
HETATM   14  C   UNL     1      -6.400  13.808  69.033  1.00  0.00    -0.100 A  
HETATM   15  C   UNL     1      -7.828  15.782  68.742  1.00  0.00    -0.180 A  
HETATM   16  C   UNL     1      -6.556  15.147  69.085  1.00  0.00    -0.128 A  
BRANCH   8  17
HETATM   17  C   UNL     1      -9.339  10.076  67.800  1.00  0.00    -0.154 A  
HETATM   18  C   UNL     1     -10.336   7.995  68.586  1.00  0.00    -0.224 A  
HETATM   19  C   UNL     1     -10.385   7.497  67.279  1.00  0.00    -0.366 A  
HETATM   20  C   UNL     1      -9.848   8.267  66.246  1.00  0.00    -0.227 A  
HETATM   21  C   UNL     1      -9.317   9.534  66.510  1.00  0.00    -0.220 A  
HETATM   22  C   UNL     1      -9.821   9.272  68.842  1.00  0.00    -0.170 A  
HETATM   23  C   UNL     1     -10.987   6.152  67.001  1.00  0.00    -0.414 C  
ENDBRANCH   8  17
ENDBRANCH   6   7
ENDBRANCH   3   6
TORSDOF 3
ENDMDL
MODEL      117
REMARK 921   NORMALIZED FREE ENERGY PREDICTED BY IDOCK:   -4.12 KCAL/MOL
REMARK 922        TOTAL FREE ENERGY PREDICTED BY IDOCK:   -5.69 KCAL/MOL
REMARK 923 INTER-LIGAND FREE ENERGY PREDICTED BY IDOCK:   -4.83 KCAL/MOL
REMARK 924 INTRA-LIGAND FREE ENERGY PREDICTED BY IDOCK:   -0.85 KCAL/MOL
REMARK 927      BINDING AFFINITY PREDICTED BY RF-SCORE:    0.00 PKD
ROOT
HETATM    1  C   UNL     1     -12.252  12.887  70.802  1.00  0.00    -0.260 C  
HETATM    2  N   UNL     1     -11.910  12.900  69.390  1.00  0.00    -0.316 N  
HETATM    3  C   UNL     1     -11.105  13.957  68.957  1.00  0.00    -0.268 C  
HETATM    4  C   UNL     1     -12.026  11.652  68.654  1.00  0.00    -0.248 C  
HETATM    5  O   UNL     1     -10.769  14.859  69.725  1.00  0.00    -0.248 OA 
ENDROOT
BRANCH   3   6
HETATM    6  C   UNL     1     -10.692  13.942  67.484  1.00  0.00    -0.271 C  
BRANCH   6   7
HETATM    7  C   UNL     1      -9.255  14.311  67.313  1.00  0.00    -0.214 A  
HETATM    8  C   UNL     1      -8.079  13.570  67.378  1.00  0.00    -0.176 A  
HETATM    9  N   UNL     1      -6.981  14.400  67.288  1.00  0.00    -0.196 NA 
HETATM   10  N   UNL     1      -8.844  15.605  67.037  1.00  0.00    -0.209 NA 
HETATM   11  C   UNL     1      -7.456  15.605  67.081  1.00  0.00    -0.218 A  
HETATM   12  C   UNL     1      -9.598  16.755  66.775  1.00  0.00    -0.249 A  
HETATM   13  C   UNL     1      -9.723  19.190  66.260  1.00  0.00    -0.412 C  
HETATM   14  C   UNL     1      -6.797  16.852  66.896  1.00  0.00    -0.250 A  
HETATM   15  C   UNL     1      -8.976  17.933  66.572  1.00  0.00    -0.278 A  
HETATM   16  C   UNL     1      -7.516  17.968  66.656  1.00  0.00    -0.256 A  
BRANCH   8  17
HETATM   17  C   UNL     1      -7.952  12.133  67.592  1.00  0.00    -0.157 A  
HETATM   18  C   UNL     1      -7.803   9.885  66.663  1.00  0.00    -0.110 A  
HETATM   19  C   UNL     1      -7.587   9.346  67.936  1.00  0.00    -0.087 A  
HETATM   20  C   UNL     1      -7.621  10.200  69.041  1.00  0.00    -0.096 A  
HETATM   21  C   UNL     1      -7.818  11.573  68.868  1.00  0.00    -0.071 A  
HETATM   22  C   UNL     1      -7.981  11.264  66.494  1.00  0.00    -0.145 A  
HETATM   23  C   UNL     1      -7.343   7.877  68.108  1.00  0.00    -0.099 C  
ENDBRANCH   8  17
ENDBRANCH   6   7
ENDBRANCH   3   6
TORSDOF 3
ENDMDL
MODEL      118
REMARK 921   NORMALIZED FREE ENERGY PREDICTED BY IDOCK:   -4.10 KCAL/MOL
REMARK 922        TOTAL FREE ENERGY PREDICTED BY IDOCK:   -5.66 KCAL/MOL
REMARK 923 INTER-LIGAND FREE ENERGY PREDICTED BY IDOCK:   -5.18 KCAL/MOL
REMARK 924 INTRA-LIGAND FREE ENERGY PREDICTED BY IDOCK:   -0.48 KCAL/MOL
REMARK 927      BINDING AFFINITY PREDICTED BY RF-SCORE:    0.00 PKD
ROOT
HETATM    1  C   UNL     1     -10.000  14.839  68.776  1.00  0.00    -0.234 C  
HETATM    2  N   UNL     1     -10.667  13.576  68.510  1.00  0.00    -0.250 N  
HETATM    3  C   UNL     1      -9.847  12.447  68.431  1.00  0.00    -0.198 C  
HETATM    4  C   UNL     1     -12.091  13.492  68.785  1.00  0.00    -0.270 C  
HETATM    5  O   UNL     1      -8.622  12.542  68.514  1.00  0.00    -0.146 OA 
ENDROOT
BRANCH   3   6
HETATM    6  C   UNL     1     -10.552  11.107  68.211  1.00  0.00    -0.221 C  
BRANCH   6   7
HETATM    7  C   UNL     1     -10.233  10.534  66.868  1.00  0.00    -0.229 A  
HETATM    8  C   UNL     1      -9.595   9.362  66.474  1.00  0.00    -0.208 A  
HETATM    9  N   UNL     1      -9.414   9.349  65.106  1.00  0.00    -0.239 NA 
HETATM   10  N   UNL     1     -10.566  11.173  65.685  1.00  0.00    -0.248 NA 
HETATM   11  C   UNL     1     -10.003  10.431  64.655  1.00  0.00    -0.338 A  
HETATM   12  C   UNL     1     -11.299  12.345  65.467  1.00  0.00    -0.346 A  
HETATM   13  C   UNL     1     -12.260  14.040  63.913  1.00  0.00    -0.336 C  
HETATM   14  C   UNL     1     -10.151  10.934  63.332  1.00  0.00    -0.398 A  
HETATM   15  C   UNL     1     -11.464  12.809  64.213  1.00  0.00    -0.427 A  
HETATM   16  C   UNL     1     -10.844  12.070  63.114  1.00  0.00    -0.275 A  
BRANCH   8  17
HETATM   17  C   UNL     1      -9.089   8.299  67.334  1.00  0.00    -0.155 A  
HETATM   18  C   UNL     1      -7.395   7.498  68.893  1.00  0.00    -0.094 A  
HETATM   19  C   UNL     1      -8.119   6.321  69.113  1.00  0.00    -0.110 A  
HETATM   20  C   UNL     1      -9.294   6.109  68.389  1.00  0.00    -0.116 A  
HETATM   21  C   UNL     1      -9.760   7.082  67.498  1.00  0.00    -0.167 A  
HETATM   22  C   UNL     1      -7.878   8.477  68.015  1.00  0.00    -0.103 A  
HETATM   23  C   UNL     1      -7.627   5.300  70.095  1.00  0.00    -0.072 C  
ENDBRANCH   8  17
ENDBRANCH   6   7
ENDBRANCH   3   6
TORSDOF 3
ENDMDL
MODEL      119
REMARK 921   NORMALIZED FREE ENERGY PREDICTED BY IDOCK:   -4.08 KCAL/MOL
REMARK 922        TOTAL FREE ENERGY PREDICTED BY IDOCK:   -5.64 KCAL/MOL
REMARK 923 INTER-LIGAND FREE ENERGY PREDICTED BY IDOCK:   -4.87 KCAL/MOL
REMARK 924 INTRA-LIGAND FREE ENERGY PREDICTED BY IDOCK:   -0.77 KCAL/MOL
REMARK 927      BINDING AFFINITY PREDICTED BY RF-SCORE:    0.00 PKD
ROOT
HETATM    1  C   UNL     1     -11.557   8.159  70.208  1.00  0.00     0.013 C  
HETATM    2  N   UNL     1     -10.446   9.076  70.022  1.00  0.00    -0.206 N  
HETATM    3  C   UNL     1     -10.718  10.241  69.299  1.00  0.00    -0.234 C  
HETATM    4  C   UNL     1      -9.316   8.962  70.928  1.00  0.00    -0.238 C  
HETATM    5  O   UNL     1     -11.824  10.434  68.795  1.00  0.00    -0.212 OA 
ENDROOT
BRANCH   3   6
HETATM    6  C   UNL     1      -9.566  11.237  69.153  1.00  0.00     0.038 C  
BRANCH   6   7
HETATM    7  C   UNL     1      -9.861  12.267  68.111  1.00  0.00    -0.212 A  
HETATM    8  C   UNL     1      -9.620  12.316  66.742  1.00  0.00    -0.218 A  
HETATM    9  N   UNL     1      -9.955  13.556  66.237  1.00  0.00    -0.292 NA 
HETATM   10  N   UNL     1     -10.487  13.467  68.405  1.00  0.00    -0.242 NA 
HETATM   11  C   UNL     1     -10.473  14.224  67.241  1.00  0.00    -0.269 A  
HETATM   12  C   UNL     1     -11.037  13.929  69.606  1.00  0.00    -0.072 A  
HETATM   13  C   UNL     1     -12.193  15.706  70.916  1.00  0.00    -0.466 C  
HETATM   14  C   UNL     1     -11.004  15.542  67.312  1.00  0.00    -0.303 A  
HETATM   15  C   UNL     1     -11.566  15.166  69.670  1.00  0.00    -0.335 A  
HETATM   16  C   UNL     1     -11.524  16.000  68.470  1.00  0.00    -0.357 A  
BRANCH   8  17
HETATM   17  C   UNL     1      -9.025  11.274  65.912  1.00  0.00    -0.206 A  
HETATM   18  C   UNL     1      -9.270   9.613  64.145  1.00  0.00    -0.218 A  
HETATM   19  C   UNL     1      -7.900   9.328  64.191  1.00  0.00    -0.125 A  
HETATM   20  C   UNL     1      -7.111   9.972  65.146  1.00  0.00    -0.135 A  
HETATM   21  C   UNL     1      -7.674  10.920  66.006  1.00  0.00    -0.107 A  
HETATM   22  C   UNL     1      -9.824  10.578  64.995  1.00  0.00    -0.369 A  
HETATM   23  C   UNL     1      -7.300   8.334  63.241  1.00  0.00    -0.105 C  
ENDBRANCH   8  17
ENDBRANCH   6   7
ENDBRANCH   3   6
TORSDOF 3
ENDMDL
MODEL      120
REMARK 921   NORMALIZED FREE ENERGY PREDICTED BY IDOCK:   -4.07 KCAL/MOL
REMARK 922        TOTAL FREE ENERGY PREDICTED BY IDOCK:   -5.62 KCAL/MOL
REMARK 923 INTER-LIGAND FREE ENERGY PREDICTED BY IDOCK:   -5.30 KCAL/MOL
REMARK 924 INTRA-LIGAND FREE ENERGY PREDICTED BY IDOCK:   -0.32 KCAL/MOL
REMARK 927      BINDING AFFINITY PREDICTED BY RF-SCORE:    0.00 PKD
ROOT
HETATM    1  C   UNL     1      -6.016  10.862  66.289  1.00  0.00    -0.139 C  
HETATM    2  N   UNL     1      -6.638   9.789  67.044  1.00  0.00    -0.070 N  
HETATM    3  C   UNL     1      -7.354  10.166  68.184  1.00  0.00    -0.082 C  
HETATM    4  C   UNL     1      -6.857   8.523  66.365  1.00  0.00    -0.074 C  
HETATM    5  O   UNL     1      -7.390  11.339  68.554  1.00  0.00    -0.092 OA 
ENDROOT
BRANCH   3   6
HETATM    6  C   UNL     1      -8.061   9.044  68.947  1.00  0.00    -0.104 C  
BRANCH   6   7
HETATM    7  C   UNL     1      -9.489   9.385  69.224  1.00  0.00    -0.164 A  
HETATM    8  C   UNL     1     -10.452  10.071  68.490  1.00  0.00    -0.202 A  
HETATM    9  N   UNL     1     -11.595  10.249  69.242  1.00  0.00    -0.169 NA 
HETATM   10  N   UNL     1     -10.128   9.024  70.399  1.00  0.00    -0.194 NA 
HETATM   11  C   UNL     1     -11.384   9.616  70.372  1.00  0.00    -0.277 A  
HETATM   12  C   UNL     1      -9.678   8.243  71.469  1.00  0.00    -0.191 A  
HETATM   13  C   UNL     1     -10.056   7.209  73.705  1.00  0.00    -0.389 C  
HETATM   14  C   UNL     1     -12.211   9.444  71.517  1.00  0.00    -0.448 A  
HETATM   15  C   UNL     1     -10.469   8.056  72.543  1.00  0.00    -0.383 A  
HETATM   16  C   UNL     1     -11.780   8.704  72.559  1.00  0.00    -0.330 A  
BRANCH   8  17
HETATM   17  C   UNL     1     -10.312  10.622  67.147  1.00  0.00    -0.275 A  
HETATM   18  C   UNL     1     -10.033  10.254  64.754  1.00  0.00    -0.392 A  
HETATM   19  C   UNL     1     -10.154  11.626  64.504  1.00  0.00    -0.321 A  
HETATM   20  C   UNL     1     -10.288  12.497  65.588  1.00  0.00    -0.294 A  
HETATM   21  C   UNL     1     -10.348  11.998  66.893  1.00  0.00    -0.238 A  
HETATM   22  C   UNL     1     -10.113   9.759  66.062  1.00  0.00    -0.322 A  
HETATM   23  C   UNL     1     -10.123  12.147  63.099  1.00  0.00    -0.154 C  
ENDBRANCH   8  17
ENDBRANCH   6   7
ENDBRANCH   3   6
TORSDOF 3
ENDMDL
MODEL      121
REMARK 921   NORMALIZED FREE ENERGY PREDICTED BY IDOCK:   -4.05 KCAL/MOL
REMARK 922        TOTAL FREE ENERGY PREDICTED BY IDOCK:   -5.60 KCAL/MOL
REMARK 923 INTER-LIGAND FREE ENERGY PREDICTED BY IDOCK:   -5.53 KCAL/MOL
REMARK 924 INTRA-LIGAND FREE ENERGY PREDICTED BY IDOCK:   -0.07 KCAL/MOL
REMARK 927      BINDING AFFINITY PREDICTED BY RF-SCORE:    0.00 PKD
ROOT
HETATM    1  C   UNL     1     -10.776  18.651  67.683  1.00  0.00    -0.376 C  
HETATM    2  N   UNL     1     -10.569  17.266  67.299  1.00  0.00    -0.319 N  
HETATM    3  C   UNL     1      -9.600  17.033  66.319  1.00  0.00    -0.267 C  
HETATM    4  C   UNL     1     -11.014  16.234  68.221  1.00  0.00    -0.348 C  
HETATM    5  O   UNL     1      -9.012  17.965  65.770  1.00  0.00    -0.492 OA 
ENDROOT
BRANCH   3   6
HETATM    6  C   UNL     1      -9.335  15.571  65.956  1.00  0.00    -0.379 C  
BRANCH   6   7
HETATM    7  C   UNL     1      -8.467  14.901  66.971  1.00  0.00    -0.231 A  
HETATM    8  C   UNL     1      -7.399  15.354  67.740  1.00  0.00    -0.161 A  
HETATM    9  N   UNL     1      -6.828  14.307  68.434  1.00  0.00    -0.094 NA 
HETATM   10  N   UNL     1      -8.623  13.572  67.327  1.00  0.00    -0.208 NA 
HETATM   11  C   UNL     1      -7.573  13.257  68.180  1.00  0.00    -0.141 A  
HETATM   12  C   UNL     1      -9.596  12.642  66.942  1.00  0.00    -0.232 A  
HETATM   13  C   UNL     1     -10.547  10.341  67.035  1.00  0.00    -0.302 C  
HETATM   14  C   UNL     1      -7.478  11.911  68.629  1.00  0.00    -0.118 A  
HETATM   15  C   UNL     1      -9.524  11.373  67.387  1.00  0.00    -0.174 A  
HETATM   16  C   UNL     1      -8.403  11.005  68.252  1.00  0.00    -0.133 A  
BRANCH   8  17
HETATM   17  C   UNL     1      -6.855  16.706  67.787  1.00  0.00    -0.158 A  
HETATM   18  C   UNL     1      -6.752  18.881  68.882  1.00  0.00    -0.312 A  
HETATM   19  C   UNL     1      -5.747  19.303  68.003  1.00  0.00    -0.205 A  
HETATM   20  C   UNL     1      -5.348  18.444  66.977  1.00  0.00    -0.142 A  
HETATM   21  C   UNL     1      -5.911  17.168  66.864  1.00  0.00    -0.223 A  
HETATM   22  C   UNL     1      -7.297  17.595  68.775  1.00  0.00    -0.261 A  
HETATM   23  C   UNL     1      -5.127  20.660  68.155  1.00  0.00    -0.260 C  
ENDBRANCH   8  17
ENDBRANCH   6   7
ENDBRANCH   3   6
TORSDOF 3
ENDMDL
MODEL      122
REMARK 921   NORMALIZED FREE ENERGY PREDICTED BY IDOCK:   -4.02 KCAL/MOL
REMARK 922        TOTAL FREE ENERGY PREDICTED BY IDOCK:   -5.57 KCAL/MOL
REMARK 923 INTER-LIGAND FREE ENERGY PREDICTED BY IDOCK:   -5.27 KCAL/MOL
REMARK 924 INTRA-LIGAND FREE ENERGY PREDICTED BY IDOCK:   -0.30 KCAL/MOL
REMARK 927      BINDING AFFINITY PREDICTED BY RF-SCORE:    0.00 PKD
ROOT
HETATM    1  C   UNL     1     -12.462  13.168  71.325  1.00  0.00    -0.232 C  
HETATM    2  N   UNL     1     -12.559  11.772  70.937  1.00  0.00    -0.333 N  
HETATM    3  C   UNL     1     -11.851  11.395  69.793  1.00  0.00    -0.364 C  
HETATM    4  C   UNL     1     -12.977  10.816  71.950  1.00  0.00    -0.419 C  
HETATM    5  O   UNL     1     -11.239  12.225  69.120  1.00  0.00    -0.243 OA 
ENDROOT
BRANCH   3   6
HETATM    6  C   UNL     1     -11.903   9.913  69.416  1.00  0.00     0.170 C  
BRANCH   6   7
HETATM    7  C   UNL     1     -10.533   9.325  69.314  1.00  0.00    -0.218 A  
HETATM    8  C   UNL     1      -9.569   9.355  68.311  1.00  0.00    -0.142 A  
HETATM    9  N   UNL     1      -8.509   8.533  68.636  1.00  0.00    -0.130 NA 
HETATM   10  N   UNL     1      -9.967   8.571  70.329  1.00  0.00    -0.181 NA 
HETATM   11  C   UNL     1      -8.762   8.080  69.842  1.00  0.00    -0.139 A  
HETATM   12  C   UNL     1     -10.442   8.284  71.613  1.00  0.00    -0.238 A  
HETATM   13  C   UNL     1     -10.171   7.160  73.821  1.00  0.00    -0.395 C  
HETATM   14  C   UNL     1      -8.022   7.209  70.689  1.00  0.00    -0.101 A  
HETATM   15  C   UNL     1      -9.730   7.482  72.428  1.00  0.00    -0.208 A  
HETATM   16  C   UNL     1      -8.480   6.916  71.923  1.00  0.00    -0.114 A  
BRANCH   8  17
HETATM   17  C   UNL     1      -9.640  10.064  67.038  1.00  0.00    -0.212 A  
HETATM   18  C   UNL     1      -9.900   9.992  64.616  1.00  0.00    -0.288 A  
HETATM   19  C   UNL     1      -9.905  11.390  64.551  1.00  0.00    -0.302 A  
HETATM   20  C   UNL     1      -9.711  12.118  65.726  1.00  0.00    -0.245 A  
HETATM   21  C   UNL     1      -9.563  11.458  66.951  1.00  0.00    -0.203 A  
HETATM   22  C   UNL     1      -9.771   9.337  65.848  1.00  0.00    -0.355 A  
HETATM   23  C   UNL     1     -10.099  12.087  63.237  1.00  0.00    -0.379 C  
ENDBRANCH   8  17
ENDBRANCH   6   7
ENDBRANCH   3   6
TORSDOF 3
ENDMDL
MODEL      123
REMARK 921   NORMALIZED FREE ENERGY PREDICTED BY IDOCK:   -3.98 KCAL/MOL
REMARK 922        TOTAL FREE ENERGY PREDICTED BY IDOCK:   -5.52 KCAL/MOL
REMARK 923 INTER-LIGAND FREE ENERGY PREDICTED BY IDOCK:   -4.51 KCAL/MOL
REMARK 924 INTRA-LIGAND FREE ENERGY PREDICTED BY IDOCK:   -1.01 KCAL/MOL
REMARK 927      BINDING AFFINITY PREDICTED BY RF-SCORE:    0.00 PKD
ROOT
HETATM    1  C   UNL     1     -10.437  10.852  63.868  1.00  0.00    -0.289 C  
HETATM    2  N   UNL     1      -9.606  11.451  64.898  1.00  0.00    -0.232 N  
HETATM    3  C   UNL     1     -10.156  12.538  65.584  1.00  0.00    -0.269 C  
HETATM    4  C   UNL     1      -8.517  10.655  65.437  1.00  0.00    -0.160 C  
HETATM    5  O   UNL     1     -11.257  12.995  65.275  1.00  0.00    -0.285 OA 
ENDROOT
BRANCH   3   6
HETATM    6  C   UNL     1      -9.309  13.133  66.710  1.00  0.00    -0.244 C  
BRANCH   6   7
HETATM    7  C   UNL     1     -10.035  13.108  68.015  1.00  0.00    -0.233 A  
HETATM    8  C   UNL     1     -10.481  12.066  68.823  1.00  0.00    -0.183 A  
HETATM    9  N   UNL     1     -11.232  12.557  69.871  1.00  0.00     0.045 NA 
HETATM   10  N   UNL     1     -10.416  14.262  68.680  1.00  0.00    -0.244 NA 
HETATM   11  C   UNL     1     -11.178  13.865  69.771  1.00  0.00    -0.089 A  
HETATM   12  C   UNL     1     -10.156  15.604  68.381  1.00  0.00    -0.214 A  
HETATM   13  C   UNL     1     -10.407  18.027  68.908  1.00  0.00    -0.244 C  
HETATM   14  C   UNL     1     -11.747  14.889  70.577  1.00  0.00    -0.344 A  
HETATM   15  C   UNL     1     -10.671  16.576  69.158  1.00  0.00    -0.335 A  
HETATM   16  C   UNL     1     -11.513  16.186  70.289  1.00  0.00    -0.319 A  
BRANCH   8  17
HETATM   17  C   UNL     1     -10.289  10.637  68.607  1.00  0.00    -0.202 A  
HETATM   18  C   UNL     1     -11.036   8.559  67.575  1.00  0.00     0.095 A  
HETATM   19  C   UNL     1      -9.906   7.887  68.053  1.00  0.00    -0.195 A  
HETATM   20  C   UNL     1      -9.005   8.580  68.864  1.00  0.00    -0.146 A  
HETATM   21  C   UNL     1      -9.207   9.934  69.149  1.00  0.00    -0.184 A  
HETATM   22  C   UNL     1     -11.223   9.920  67.847  1.00  0.00    -0.108 A  
HETATM   23  C   UNL     1      -9.680   6.444  67.713  1.00  0.00    -0.127 C  
ENDBRANCH   8  17
ENDBRANCH   6   7
ENDBRANCH   3   6
TORSDOF 3
ENDMDL
MODEL      124
REMARK 921   NORMALIZED FREE ENERGY PREDICTED BY IDOCK:   -3.95 KCAL/MOL
REMARK 922        TOTAL FREE ENERGY PREDICTED BY IDOCK:   -5.49 KCAL/MOL
REMARK 923 INTER-LIGAND FREE ENERGY PREDICTED BY IDOCK:   -5.02 KCAL/MOL
REMARK 924 INTRA-LIGAND FREE ENERGY PREDICTED BY IDOCK:   -0.46 KCAL/MOL
REMARK 927      BINDING AFFINITY PREDICTED BY RF-SCORE:    0.00 PKD
ROOT
HETATM    1  C   UNL     1      -5.778   9.106  72.140  1.00  0.00    -0.065 C  
HETATM    2  N   UNL     1      -6.749   8.634  71.169  1.00  0.00    -0.061 N  
HETATM    3  C   UNL     1      -7.198   7.320  71.329  1.00  0.00    -0.072 C  
HETATM    4  C   UNL     1      -7.495   9.630  70.418  1.00  0.00    -0.158 C  
HETATM    5  O   UNL     1      -6.735   6.592  72.207  1.00  0.00    -0.065 OA 
ENDROOT
BRANCH   3   6
HETATM    6  C   UNL     1      -8.265   6.839  70.344  1.00  0.00    -0.125 C  
BRANCH   6   7
HETATM    7  C   UNL     1      -9.584   6.642  71.018  1.00  0.00    -0.171 A  
HETATM    8  C   UNL     1     -10.737   7.419  71.072  1.00  0.00    -0.231 A  
HETATM    9  N   UNL     1     -11.648   6.868  71.949  1.00  0.00    -0.273 NA 
HETATM   10  N   UNL     1      -9.873   5.523  71.780  1.00  0.00    -0.167 NA 
HETATM   11  C   UNL     1     -11.118   5.738  72.356  1.00  0.00    -0.281 A  
HETATM   12  C   UNL     1      -9.120   4.365  72.006  1.00  0.00    -0.125 A  
HETATM   13  C   UNL     1      -8.846   2.138  73.090  1.00  0.00    -0.068 C  
HETATM   14  C   UNL     1     -11.605   4.745  73.250  1.00  0.00    -0.286 A  
HETATM   15  C   UNL     1      -9.591   3.409  72.830  1.00  0.00    -0.167 A  
HETATM   16  C   UNL     1     -10.880   3.632  73.484  1.00  0.00    -0.322 A  
BRANCH   8  17
HETATM   17  C   UNL     1     -10.982   8.686  70.391  1.00  0.00    -0.256 A  
HETATM   18  C   UNL     1     -10.899  10.013  68.348  1.00  0.00    -0.277 A  
HETATM   19  C   UNL     1     -11.544  11.079  68.986  1.00  0.00    -0.392 A  
HETATM   20  C   UNL     1     -11.844  10.966  70.345  1.00  0.00    -0.449 A  
HETATM   21  C   UNL     1     -11.549   9.788  71.040  1.00  0.00    -0.455 A  
HETATM   22  C   UNL     1     -10.625   8.828  69.044  1.00  0.00    -0.191 A  
HETATM   23  C   UNL     1     -11.886  12.324  68.224  1.00  0.00    -0.367 C  
ENDBRANCH   8  17
ENDBRANCH   6   7
ENDBRANCH   3   6
TORSDOF 3
ENDMDL
MODEL      125
REMARK 921   NORMALIZED FREE ENERGY PREDICTED BY IDOCK:   -3.84 KCAL/MOL
REMARK 922        TOTAL FREE ENERGY PREDICTED BY IDOCK:   -5.35 KCAL/MOL
REMARK 923 INTER-LIGAND FREE ENERGY PREDICTED BY IDOCK:   -4.77 KCAL/MOL
REMARK 924 INTRA-LIGAND FREE ENERGY PREDICTED BY IDOCK:   -0.58 KCAL/MOL
REMARK 927      BINDING AFFINITY PREDICTED BY RF-SCORE:    0.00 PKD
ROOT
HETATM    1  C   UNL     1     -10.564   4.804  66.194  1.00  0.00    -0.234 C  
HETATM    2  N   UNL     1      -9.599   5.346  67.135  1.00  0.00    -0.129 N  
HETATM    3  C   UNL     1      -9.955   6.540  67.769  1.00  0.00    -0.131 C  
HETATM    4  C   UNL     1      -8.597   4.442  67.673  1.00  0.00    -0.103 C  
HETATM    5  O   UNL     1     -11.000   7.125  67.485  1.00  0.00    -0.244 OA 
ENDROOT
BRANCH   3   6
HETATM    6  C   UNL     1      -8.968   7.082  68.805  1.00  0.00    -0.131 C  
BRANCH   6   7
HETATM    7  C   UNL     1      -9.617   7.263  70.139  1.00  0.00    -0.168 A  
HETATM    8  C   UNL     1     -10.326   8.319  70.704  1.00  0.00    -0.199 A  
HETATM    9  N   UNL     1     -10.604   8.057  72.030  1.00  0.00    -0.231 NA 
HETATM   10  N   UNL     1      -9.593   6.286  71.119  1.00  0.00    -0.174 NA 
HETATM   11  C   UNL     1     -10.164   6.841  72.256  1.00  0.00    -0.189 A  
HETATM   12  C   UNL     1      -9.096   4.978  71.078  1.00  0.00    -0.141 A  
HETATM   13  C   UNL     1      -8.654   2.794  72.195  1.00  0.00    -0.085 C  
HETATM   14  C   UNL     1     -10.189   6.041  73.432  1.00  0.00    -0.226 A  
HETATM   15  C   UNL     1      -9.143   4.208  72.183  1.00  0.00    -0.156 A  
HETATM   16  C   UNL     1      -9.700   4.784  73.406  1.00  0.00    -0.153 A  
BRANCH   8  17
HETATM   17  C   UNL     1     -10.685   9.582  70.069  1.00  0.00    -0.278 A  
HETATM   18  C   UNL     1     -10.081  11.430  68.599  1.00  0.00    -0.217 A  
HETATM   19  C   UNL     1     -11.366  11.973  68.716  1.00  0.00    -0.331 A  
HETATM   20  C   UNL     1     -12.284  11.352  69.564  1.00  0.00    -0.303 A  
HETATM   21  C   UNL     1     -11.938  10.180  70.244  1.00  0.00    -0.315 A  
HETATM   22  C   UNL     1      -9.747  10.245  69.267  1.00  0.00    -0.240 A  
HETATM   23  C   UNL     1     -11.737  13.212  67.955  1.00  0.00    -0.394 C  
ENDBRANCH   8  17
ENDBRANCH   6   7
ENDBRANCH   3   6
TORSDOF 3
ENDMDL
MODEL      126
REMARK 921   NORMALIZED FREE ENERGY PREDICTED BY IDOCK:   -3.82 KCAL/MOL
REMARK 922        TOTAL FREE ENERGY PREDICTED BY IDOCK:   -5.33 KCAL/MOL
REMARK 923 INTER-LIGAND FREE ENERGY PREDICTED BY IDOCK:   -4.34 KCAL/MOL
REMARK 924 INTRA-LIGAND FREE ENERGY PREDICTED BY IDOCK:   -0.99 KCAL/MOL
REMARK 927      BINDING AFFINITY PREDICTED BY RF-SCORE:    0.00 PKD
ROOT
HETATM    1  C   UNL     1     -10.340   9.213  71.416  1.00  0.00    -0.338 C  
HETATM    2  N   UNL     1     -10.805   8.534  70.220  1.00  0.00    -0.238 N  
HETATM    3  C   UNL     1     -10.423   9.097  68.998  1.00  0.00    -0.221 C  
HETATM    4  C   UNL     1     -11.220   7.147  70.346  1.00  0.00    -0.287 C  
HETATM    5  O   UNL     1      -9.786  10.150  68.954  1.00  0.00    -0.169 OA 
ENDROOT
BRANCH   3   6
HETATM    6  C   UNL     1     -10.861   8.351  67.737  1.00  0.00    -0.061 C  
BRANCH   6   7
HETATM    7  C   UNL     1      -9.694   8.019  66.864  1.00  0.00    -0.225 A  
HETATM    8  C   UNL     1      -8.785   6.966  66.870  1.00  0.00    -0.118 A  
HETATM    9  N   UNL     1      -7.792   7.182  65.936  1.00  0.00    -0.100 NA 
HETATM   10  N   UNL     1      -9.307   8.817  65.800  1.00  0.00    -0.218 NA 
HETATM   11  C   UNL     1      -8.123   8.285  65.307  1.00  0.00    -0.142 A  
HETATM   12  C   UNL     1      -9.908   9.962  65.265  1.00  0.00    -0.303 A  
HETATM   13  C   UNL     1      -9.928  11.821  63.605  1.00  0.00    -0.404 C  
HETATM   14  C   UNL     1      -7.487   8.982  64.242  1.00  0.00    -0.106 A  
HETATM   15  C   UNL     1      -9.322  10.609  64.238  1.00  0.00    -0.298 A  
HETATM   16  C   UNL     1      -8.052  10.094  63.729  1.00  0.00    -0.160 A  
BRANCH   8  17
HETATM   17  C   UNL     1      -8.775   5.813  67.762  1.00  0.00    -0.107 A  
HETATM   18  C   UNL     1      -8.083   4.805  69.870  1.00  0.00    -0.069 A  
HETATM   19  C   UNL     1      -8.821   3.650  69.588  1.00  0.00    -0.149 A  
HETATM   20  C   UNL     1      -9.479   3.556  68.361  1.00  0.00    -0.209 A  
HETATM   21  C   UNL     1      -9.440   4.620  67.454  1.00  0.00    -0.177 A  
HETATM   22  C   UNL     1      -8.064   5.875  68.967  1.00  0.00    -0.103 A  
HETATM   23  C   UNL     1      -8.884   2.528  70.582  1.00  0.00    -0.142 C  
ENDBRANCH   8  17
ENDBRANCH   6   7
ENDBRANCH   3   6
TORSDOF 3
ENDMDL
MODEL      127
REMARK 921   NORMALIZED FREE ENERGY PREDICTED BY IDOCK:   -3.80 KCAL/MOL
REMARK 922        TOTAL FREE ENERGY PREDICTED BY IDOCK:   -5.31 KCAL/MOL
REMARK 923 INTER-LIGAND FREE ENERGY PREDICTED BY IDOCK:   -5.27 KCAL/MOL
REMARK 924 INTRA-LIGAND FREE ENERGY PREDICTED BY IDOCK:   -0.05 KCAL/MOL
REMARK 927      BINDING AFFINITY PREDICTED BY RF-SCORE:    0.00 PKD
ROOT
HETATM    1  C   UNL     1     -12.002  14.596  64.529  1.00  0.00    -0.460 C  
HETATM    2  N   UNL     1     -11.626  13.682  65.594  1.00  0.00    -0.320 N  
HETATM    3  C   UNL     1     -11.724  14.176  66.898  1.00  0.00    -0.414 C  
HETATM    4  C   UNL     1     -11.617  12.261  65.293  1.00  0.00    -0.355 C  
HETATM    5  O   UNL     1     -12.045  15.344  67.114  1.00  0.00     0.145 OA 
ENDROOT
BRANCH   3   6
HETATM    6  C   UNL     1     -11.387  13.197  68.024  1.00  0.00    -0.327 C  
BRANCH   6   7
HETATM    7  C   UNL     1      -9.919  12.927  68.095  1.00  0.00    -0.234 A  
HETATM    8  C   UNL     1      -9.177  11.750  68.060  1.00  0.00    -0.181 A  
HETATM    9  N   UNL     1      -7.845  12.014  68.306  1.00  0.00    -0.138 NA 
HETATM   10  N   UNL     1      -8.980  13.936  68.229  1.00  0.00    -0.184 NA 
HETATM   11  C   UNL     1      -7.748  13.319  68.399  1.00  0.00    -0.138 A  
HETATM   12  C   UNL     1      -9.142  15.326  68.228  1.00  0.00    -0.181 A  
HETATM   13  C   UNL     1      -8.178  17.618  68.400  1.00  0.00    -0.289 C  
HETATM   14  C   UNL     1      -6.623  14.159  68.628  1.00  0.00    -0.092 A  
HETATM   15  C   UNL     1      -8.074  16.126  68.418  1.00  0.00    -0.171 A  
HETATM   16  C   UNL     1      -6.772  15.500  68.643  1.00  0.00    -0.107 A  
BRANCH   8  17
HETATM   17  C   UNL     1      -9.680  10.394  67.878  1.00  0.00    -0.168 A  
HETATM   18  C   UNL     1      -9.930   8.429  66.458  1.00  0.00    -0.335 A  
HETATM   19  C   UNL     1     -10.527   7.718  67.506  1.00  0.00    -0.338 A  
HETATM   20  C   UNL     1     -10.758   8.373  68.717  1.00  0.00    -0.086 A  
HETATM   21  C   UNL     1     -10.353   9.701  68.891  1.00  0.00    -0.220 A  
HETATM   22  C   UNL     1      -9.509   9.752  66.645  1.00  0.00    -0.220 A  
HETATM   23  C   UNL     1     -10.927   6.284  67.319  1.00  0.00    -0.455 C  
ENDBRANCH   8  17
ENDBRANCH   6   7
ENDBRANCH   3   6
TORSDOF 3
ENDMDL
MODEL      128
REMARK 921   NORMALIZED FREE ENERGY PREDICTED BY IDOCK:   -3.77 KCAL/MOL
REMARK 922        TOTAL FREE ENERGY PREDICTED BY IDOCK:   -5.27 KCAL/MOL
REMARK 923 INTER-LIGAND FREE ENERGY PREDICTED BY IDOCK:   -4.57 KCAL/MOL
REMARK 924 INTRA-LIGAND FREE ENERGY PREDICTED BY IDOCK:   -0.71 KCAL/MOL
REMARK 927      BINDING AFFINITY PREDICTED BY RF-SCORE:    0.00 PKD
ROOT
HETATM    1  C   UNL     1     -10.032   5.124  65.878  1.00  0.00    -0.119 C  
HETATM    2  N   UNL     1      -9.284   5.948  66.811  1.00  0.00    -0.129 N  
HETATM    3  C   UNL     1      -9.924   7.103  67.270  1.00  0.00    -0.186 C  
HETATM    4  C   UNL     1      -8.178   5.330  67.523  1.00  0.00    -0.100 C  
HETATM    5  O   UNL     1     -11.033   7.427  66.845  1.00  0.00    -0.324 OA 
ENDROOT
BRANCH   3   6
HETATM    6  C   UNL     1      -9.164   7.941  68.299  1.00  0.00    -0.137 C  
BRANCH   6   7
HETATM    7  C   UNL     1     -10.083   8.509  69.331  1.00  0.00    -0.205 A  
HETATM    8  C   UNL     1     -10.453   8.076  70.600  1.00  0.00    -0.210 A  
HETATM    9  N   UNL     1     -11.451   8.880  71.111  1.00  0.00    -0.284 NA 
HETATM   10  N   UNL     1     -10.783   9.688  69.139  1.00  0.00    -0.221 NA 
HETATM   11  C   UNL     1     -11.630   9.836  70.230  1.00  0.00    -0.220 A  
HETATM   12  C   UNL     1     -10.736  10.605  68.083  1.00  0.00    -0.225 A  
HETATM   13  C   UNL     1     -11.527  12.708  67.004  1.00  0.00    -0.406 C  
HETATM   14  C   UNL     1     -12.511  10.952  70.226  1.00  0.00    -0.383 A  
HETATM   15  C   UNL     1     -11.550  11.678  68.089  1.00  0.00    -0.389 A  
HETATM   16  C   UNL     1     -12.482  11.834  69.205  1.00  0.00     0.148 A  
BRANCH   8  17
HETATM   17  C   UNL     1      -9.960   6.902  71.312  1.00  0.00    -0.189 A  
HETATM   18  C   UNL     1      -9.635   4.488  71.391  1.00  0.00    -0.232 A  
HETATM   19  C   UNL     1      -8.918   4.600  72.588  1.00  0.00    -0.133 A  
HETATM   20  C   UNL     1      -8.784   5.859  73.176  1.00  0.00    -0.122 A  
HETATM   21  C   UNL     1      -9.315   6.992  72.551  1.00  0.00    -0.157 A  
HETATM   22  C   UNL     1     -10.148   5.628  70.760  1.00  0.00    -0.270 A  
HETATM   23  C   UNL     1      -8.324   3.383  73.233  1.00  0.00    -0.075 C  
ENDBRANCH   8  17
ENDBRANCH   6   7
ENDBRANCH   3   6
TORSDOF 3
ENDMDL
MODEL      129
REMARK 921   NORMALIZED FREE ENERGY PREDICTED BY IDOCK:   -3.75 KCAL/MOL
REMARK 922        TOTAL FREE ENERGY PREDICTED BY IDOCK:   -5.25 KCAL/MOL
REMARK 923 INTER-LIGAND FREE ENERGY PREDICTED BY IDOCK:   -4.62 KCAL/MOL
REMARK 924 INTRA-LIGAND FREE ENERGY PREDICTED BY IDOCK:   -0.63 KCAL/MOL
REMARK 927      BINDING AFFINITY PREDICTED BY RF-SCORE:    0.00 PKD
ROOT
HETATM    1  C   UNL     1      -5.131  10.608  68.439  1.00  0.00    -0.033 C  
HETATM    2  N   UNL     1      -6.351  10.258  67.735  1.00  0.00    -0.057 N  
HETATM    3  C   UNL     1      -7.506  10.141  68.514  1.00  0.00    -0.086 C  
HETATM    4  C   UNL     1      -6.395  10.491  66.301  1.00  0.00    -0.106 C  
HETATM    5  O   UNL     1      -7.462  10.261  69.739  1.00  0.00    -0.141 OA 
ENDROOT
BRANCH   3   6
HETATM    6  C   UNL     1      -8.805   9.833  67.767  1.00  0.00    -0.129 C  
BRANCH   6   7
HETATM    7  C   UNL     1      -9.900   9.449  68.708  1.00  0.00    -0.163 A  
HETATM    8  C   UNL     1     -10.941  10.171  69.284  1.00  0.00    -0.240 A  
HETATM    9  N   UNL     1     -11.613   9.395  70.206  1.00  0.00    -0.193 NA 
HETATM   10  N   UNL     1     -10.044   8.163  69.201  1.00  0.00    -0.197 NA 
HETATM   11  C   UNL     1     -11.068   8.203  70.139  1.00  0.00    -0.187 A  
HETATM   12  C   UNL     1      -9.337   6.994  68.897  1.00  0.00    -0.139 A  
HETATM   13  C   UNL     1      -8.926   4.561  69.241  1.00  0.00    -0.142 C  
HETATM   14  C   UNL     1     -11.358   7.001  70.841  1.00  0.00    -0.334 A  
HETATM   15  C   UNL     1      -9.627   5.847  69.541  1.00  0.00    -0.174 A  
HETATM   16  C   UNL     1     -10.671   5.873  70.565  1.00  0.00    -0.363 A  
BRANCH   8  17
HETATM   17  C   UNL     1     -11.278  11.571  69.054  1.00  0.00    -0.324 A  
HETATM   18  C   UNL     1     -11.856  13.759  69.960  1.00  0.00    -0.377 A  
HETATM   19  C   UNL     1     -11.819  14.325  68.680  1.00  0.00    -0.379 A  
HETATM   20  C   UNL     1     -11.576  13.494  67.585  1.00  0.00    -0.374 A  
HETATM   21  C   UNL     1     -11.326  12.131  67.772  1.00  0.00    -0.371 A  
HETATM   22  C   UNL     1     -11.585  12.397  70.143  1.00  0.00    -0.159 A  
HETATM   23  C   UNL     1     -12.055  15.794  68.493  1.00  0.00     0.045 C  
ENDBRANCH   8  17
ENDBRANCH   6   7
ENDBRANCH   3   6
TORSDOF 3
ENDMDL
MODEL      130
REMARK 921   NORMALIZED FREE ENERGY PREDICTED BY IDOCK:   -3.71 KCAL/MOL
REMARK 922        TOTAL FREE ENERGY PREDICTED BY IDOCK:   -5.21 KCAL/MOL
REMARK 923 INTER-LIGAND FREE ENERGY PREDICTED BY IDOCK:   -4.73 KCAL/MOL
REMARK 924 INTRA-LIGAND FREE ENERGY PREDICTED BY IDOCK:   -0.47 KCAL/MOL
REMARK 927      BINDING AFFINITY PREDICTED BY RF-SCORE:    0.00 PKD
ROOT
HETATM    1  C   UNL     1     -12.377  12.539  70.765  1.00  0.00    -0.286 C  
HETATM    2  N   UNL     1     -11.884  12.534  69.399  1.00  0.00    -0.316 N  
HETATM    3  C   UNL     1     -11.595  11.282  68.848  1.00  0.00    -0.319 C  
HETATM    4  C   UNL     1     -12.144  13.708  68.582  1.00  0.00    -0.290 C  
HETATM    5  O   UNL     1     -11.691  10.254  69.519  1.00  0.00    -0.207 OA 
ENDROOT
BRANCH   3   6
HETATM    6  C   UNL     1     -11.134  11.269  67.390  1.00  0.00    -0.358 C  
BRANCH   6   7
HETATM    7  C   UNL     1      -9.672  10.976  67.280  1.00  0.00    -0.166 A  
HETATM    8  C   UNL     1      -8.564  11.789  67.062  1.00  0.00    -0.173 A  
HETATM    9  N   UNL     1      -7.429  11.021  66.898  1.00  0.00    -0.126 NA 
HETATM   10  N   UNL     1      -9.158   9.695  67.387  1.00  0.00    -0.131 NA 
HETATM   11  C   UNL     1      -7.802   9.780  67.100  1.00  0.00    -0.099 A  
HETATM   12  C   UNL     1      -9.796   8.488  67.696  1.00  0.00    -0.174 A  
HETATM   13  C   UNL     1      -9.711   6.023  68.052  1.00  0.00    -0.126 C  
HETATM   14  C   UNL     1      -7.062   8.565  67.079  1.00  0.00    -0.075 A  
HETATM   15  C   UNL     1      -9.092   7.339  67.703  1.00  0.00    -0.124 A  
HETATM   16  C   UNL     1      -7.672   7.396  67.362  1.00  0.00    -0.114 A  
BRANCH   8  17
HETATM   17  C   UNL     1      -8.546  13.241  66.930  1.00  0.00    -0.116 A  
HETATM   18  C   UNL     1      -7.557  15.384  67.537  1.00  0.00    -0.207 A  
HETATM   19  C   UNL     1      -8.383  16.051  66.625  1.00  0.00    -0.331 A  
HETATM   20  C   UNL     1      -9.334  15.315  65.917  1.00  0.00    -0.308 A  
HETATM   21  C   UNL     1      -9.423  13.929  66.083  1.00  0.00    -0.194 A  
HETATM   22  C   UNL     1      -7.637  13.993  67.684  1.00  0.00    -0.191 A  
HETATM   23  C   UNL     1      -8.256  17.533  66.430  1.00  0.00    -0.305 C  
ENDBRANCH   8  17
ENDBRANCH   6   7
ENDBRANCH   3   6
TORSDOF 3
ENDMDL
MODEL      131
REMARK 921   NORMALIZED FREE ENERGY PREDICTED BY IDOCK:   -3.67 KCAL/MOL
REMARK 922        TOTAL FREE ENERGY PREDICTED BY IDOCK:   -5.16 KCAL/MOL
REMARK 923 INTER-LIGAND FREE ENERGY PREDICTED BY IDOCK:   -5.54 KCAL/MOL
REMARK 924 INTRA-LIGAND FREE ENERGY PREDICTED BY IDOCK:    0.38 KCAL/MOL
REMARK 927      BINDING AFFINITY PREDICTED BY RF-SCORE:    0.00 PKD
ROOT
HETATM    1  C   UNL     1      -6.068  16.112  67.912  1.00  0.00    -0.130 C  
HETATM    2  N   UNL     1      -7.181  15.287  68.348  1.00  0.00    -0.110 N  
HETATM    3  C   UNL     1      -8.289  15.965  68.867  1.00  0.00    -0.226 C  
HETATM    4  C   UNL     1      -7.266  13.933  67.826  1.00  0.00    -0.164 C  
HETATM    5  O   UNL     1      -8.279  17.188  69.006  1.00  0.00    -0.215 OA 
ENDROOT
BRANCH   3   6
HETATM    6  C   UNL     1      -9.487  15.104  69.271  1.00  0.00    -0.212 C  
BRANCH   6   7
HETATM    7  C   UNL     1     -10.244  14.623  68.076  1.00  0.00    -0.231 A  
HETATM    8  C   UNL     1     -10.771  13.381  67.734  1.00  0.00    -0.248 A  
HETATM    9  N   UNL     1     -11.265  13.405  66.446  1.00  0.00    -0.299 NA 
HETATM   10  N   UNL     1     -10.560  15.448  67.010  1.00  0.00    -0.303 NA 
HETATM   11  C   UNL     1     -11.135  14.645  66.034  1.00  0.00    -0.332 A  
HETATM   12  C   UNL     1     -10.361  16.823  66.843  1.00  0.00    -0.294 A  
HETATM   13  C   UNL     1     -10.555  18.887  65.459  1.00  0.00    -0.063 C  
HETATM   14  C   UNL     1     -11.485  15.263  64.802  1.00  0.00    -0.364 A  
HETATM   15  C   UNL     1     -10.716  17.417  65.687  1.00  0.00    -0.113 A  
HETATM   16  C   UNL     1     -11.284  16.585  64.627  1.00  0.00    -0.123 A  
BRANCH   8  17
HETATM   17  C   UNL     1     -10.760  12.164  68.539  1.00  0.00    -0.257 A  
HETATM   18  C   UNL     1      -9.750  10.007  69.055  1.00  0.00    -0.204 A  
HETATM   19  C   UNL     1     -10.612   9.837  70.144  1.00  0.00    -0.337 A  
HETATM   20  C   UNL     1     -11.590  10.804  70.385  1.00  0.00    -0.431 A  
HETATM   21  C   UNL     1     -11.670  11.944  69.579  1.00  0.00    -0.410 A  
HETATM   22  C   UNL     1      -9.822  11.160  68.263  1.00  0.00    -0.195 A  
HETATM   23  C   UNL     1     -10.495   8.627  71.023  1.00  0.00    -0.276 C  
ENDBRANCH   8  17
ENDBRANCH   6   7
ENDBRANCH   3   6
TORSDOF 3
ENDMDL
MODEL      132
REMARK 921   NORMALIZED FREE ENERGY PREDICTED BY IDOCK:   -3.66 KCAL/MOL
REMARK 922        TOTAL FREE ENERGY PREDICTED BY IDOCK:   -5.15 KCAL/MOL
REMARK 923 INTER-LIGAND FREE ENERGY PREDICTED BY IDOCK:   -4.61 KCAL/MOL
REMARK 924 INTRA-LIGAND FREE ENERGY PREDICTED BY IDOCK:   -0.54 KCAL/MOL
REMARK 927      BINDING AFFINITY PREDICTED BY RF-SCORE:    0.00 PKD
ROOT
HETATM    1  C   UNL     1      -7.723   6.299  69.868  1.00  0.00    -0.105 C  
HETATM    2  N   UNL     1      -8.856   6.548  68.994  1.00  0.00    -0.131 N  
HETATM    3  C   UNL     1      -8.843   7.756  68.290  1.00  0.00    -0.129 C  
HETATM    4  C   UNL     1      -9.651   5.406  68.575  1.00  0.00    -0.129 C  
HETATM    5  O   UNL     1      -7.949   8.584  68.463  1.00  0.00    -0.113 OA 
ENDROOT
BRANCH   3   6
HETATM    6  C   UNL     1     -10.004   7.994  67.323  1.00  0.00    -0.282 C  
BRANCH   6   7
HETATM    7  C   UNL     1      -9.621   8.933  66.226  1.00  0.00    -0.260 A  
HETATM    8  C   UNL     1      -9.846  10.292  66.029  1.00  0.00    -0.233 A  
HETATM    9  N   UNL     1      -9.411  10.676  64.778  1.00  0.00    -0.215 NA 
HETATM   10  N   UNL     1      -8.904   8.527  65.112  1.00  0.00    -0.127 NA 
HETATM   11  C   UNL     1      -8.849   9.614  64.250  1.00  0.00    -0.228 A  
HETATM   12  C   UNL     1      -8.328   7.287  64.812  1.00  0.00     0.018 A  
HETATM   13  C   UNL     1      -7.045   5.814  63.265  1.00  0.00    -0.046 C  
HETATM   14  C   UNL     1      -8.215   9.418  62.992  1.00  0.00    -0.167 A  
HETATM   15  C   UNL     1      -7.703   7.106  63.632  1.00  0.00    -0.119 A  
HETATM   16  C   UNL     1      -7.669   8.222  62.688  1.00  0.00    -0.126 A  
BRANCH   8  17
HETATM   17  C   UNL     1     -10.516  11.217  66.937  1.00  0.00    -0.289 A  
HETATM   18  C   UNL     1     -10.848  12.051  69.202  1.00  0.00    -0.175 A  
HETATM   19  C   UNL     1     -11.692  13.063  68.732  1.00  0.00    -0.363 A  
HETATM   20  C   UNL     1     -11.997  13.105  67.370  1.00  0.00    -0.379 A  
HETATM   21  C   UNL     1     -11.427  12.180  66.489  1.00  0.00    -0.430 A  
HETATM   22  C   UNL     1     -10.265  11.140  68.313  1.00  0.00    -0.197 A  
HETATM   23  C   UNL     1     -12.272  14.070  69.680  1.00  0.00    -0.383 C  
ENDBRANCH   8  17
ENDBRANCH   6   7
ENDBRANCH   3   6
TORSDOF 3
ENDMDL
MODEL      133
REMARK 921   NORMALIZED FREE ENERGY PREDICTED BY IDOCK:   -3.62 KCAL/MOL
REMARK 922        TOTAL FREE ENERGY PREDICTED BY IDOCK:   -5.10 KCAL/MOL
REMARK 923 INTER-LIGAND FREE ENERGY PREDICTED BY IDOCK:   -5.36 KCAL/MOL
REMARK 924 INTRA-LIGAND FREE ENERGY PREDICTED BY IDOCK:    0.26 KCAL/MOL
REMARK 927      BINDING AFFINITY PREDICTED BY RF-SCORE:    0.00 PKD
ROOT
HETATM    1  C   UNL     1      -9.804  10.712  65.875  1.00  0.00    -0.243 C  
HETATM    2  N   UNL     1      -8.994  11.605  66.685  1.00  0.00    -0.185 N  
HETATM    3  C   UNL     1      -9.687  12.544  67.455  1.00  0.00    -0.196 C  
HETATM    4  C   UNL     1      -7.632  11.198  66.987  1.00  0.00    -0.135 C  
HETATM    5  O   UNL     1     -10.913  12.643  67.387  1.00  0.00    -0.240 OA 
ENDROOT
BRANCH   3   6
HETATM    6  C   UNL     1      -8.842  13.446  68.355  1.00  0.00    -0.133 C  
BRANCH   6   7
HETATM    7  C   UNL     1      -9.616  14.637  68.821  1.00  0.00    -0.210 A  
HETATM    8  C   UNL     1      -9.483  16.000  68.574  1.00  0.00    -0.216 A  
HETATM    9  N   UNL     1     -10.363  16.719  69.356  1.00  0.00    -0.299 NA 
HETATM   10  N   UNL     1     -10.702  14.534  69.673  1.00  0.00    -0.161 NA 
HETATM   11  C   UNL     1     -11.083  15.829  69.999  1.00  0.00    -0.344 A  
HETATM   12  C   UNL     1     -11.348  13.401  70.180  1.00  0.00     0.144 A  
HETATM   13  C   UNL     1     -13.124  12.372  71.594  1.00  0.00    -0.408 C  
HETATM   14  C   UNL     1     -12.148  15.982  70.929  1.00  0.00    -0.332 A  
HETATM   15  C   UNL     1     -12.376  13.542  71.040  1.00  0.00    -0.422 A  
HETATM   16  C   UNL     1     -12.768  14.895  71.433  1.00  0.00    -0.408 A  
BRANCH   8  17
HETATM   17  C   UNL     1      -8.518  16.648  67.693  1.00  0.00    -0.200 A  
HETATM   18  C   UNL     1      -8.047  18.295  65.959  1.00  0.00    -0.115 A  
HETATM   19  C   UNL     1      -6.676  18.027  66.043  1.00  0.00    -0.323 A  
HETATM   20  C   UNL     1      -6.240  17.020  66.907  1.00  0.00    -0.235 A  
HETATM   21  C   UNL     1      -7.156  16.330  67.708  1.00  0.00    -0.152 A  
HETATM   22  C   UNL     1      -8.957  17.614  66.778  1.00  0.00    -0.272 A  
HETATM   23  C   UNL     1      -5.700  18.796  65.205  1.00  0.00    -0.272 C  
ENDBRANCH   8  17
ENDBRANCH   6   7
ENDBRANCH   3   6
TORSDOF 3
ENDMDL
MODEL      134
REMARK 921   NORMALIZED FREE ENERGY PREDICTED BY IDOCK:   -3.61 KCAL/MOL
REMARK 922        TOTAL FREE ENERGY PREDICTED BY IDOCK:   -5.08 KCAL/MOL
REMARK 923 INTER-LIGAND FREE ENERGY PREDICTED BY IDOCK:   -4.24 KCAL/MOL
REMARK 924 INTRA-LIGAND FREE ENERGY PREDICTED BY IDOCK:   -0.85 KCAL/MOL
REMARK 927      BINDING AFFINITY PREDICTED BY RF-SCORE:    0.00 PKD
ROOT
HETATM    1  C   UNL     1      -6.556   5.992  66.739  1.00  0.00    -0.056 C  
HETATM    2  N   UNL     1      -6.858   6.524  68.056  1.00  0.00    -0.071 N  
HETATM    3  C   UNL     1      -7.473   5.646  68.953  1.00  0.00    -0.084 C  
HETATM    4  C   UNL     1      -6.135   7.708  68.489  1.00  0.00    -0.032 C  
HETATM    5  O   UNL     1      -7.798   4.509  68.611  1.00  0.00    -0.074 OA 
ENDROOT
BRANCH   3   6
HETATM    6  C   UNL     1      -7.738   6.185  70.360  1.00  0.00    -0.098 C  
BRANCH   6   7
HETATM    7  C   UNL     1      -9.190   6.126  70.706  1.00  0.00    -0.154 A  
HETATM    8  C   UNL     1     -10.307   6.773  70.185  1.00  0.00    -0.202 A  
HETATM    9  N   UNL     1     -11.424   6.490  70.944  1.00  0.00    -0.332 NA 
HETATM   10  N   UNL     1      -9.685   5.325  71.721  1.00  0.00    -0.154 NA 
HETATM   11  C   UNL     1     -11.035   5.624  71.849  1.00  0.00    -0.235 A  
HETATM   12  C   UNL     1      -9.033   4.388  72.530  1.00  0.00    -0.115 A  
HETATM   13  C   UNL     1      -9.084   2.714  74.376  1.00  0.00    -0.092 C  
HETATM   14  C   UNL     1     -11.753   4.970  72.888  1.00  0.00    -0.200 A  
HETATM   15  C   UNL     1      -9.717   3.746  73.498  1.00  0.00    -0.142 A  
HETATM   16  C   UNL     1     -11.130   4.075  73.681  1.00  0.00    -0.334 A  
BRANCH   8  17
HETATM   17  C   UNL     1     -10.347   7.696  69.056  1.00  0.00    -0.220 A  
HETATM   18  C   UNL     1     -10.296   9.986  68.224  1.00  0.00    -0.224 A  
HETATM   19  C   UNL     1     -10.300   9.530  66.900  1.00  0.00    -0.307 A  
HETATM   20  C   UNL     1     -10.395   8.158  66.662  1.00  0.00    -0.284 A  
HETATM   21  C   UNL     1     -10.436   7.256  67.730  1.00  0.00    -0.292 A  
HETATM   22  C   UNL     1     -10.316   9.077  69.289  1.00  0.00    -0.227 A  
HETATM   23  C   UNL     1     -10.222  10.504  65.762  1.00  0.00    -0.310 C  
ENDBRANCH   8  17
ENDBRANCH   6   7
ENDBRANCH   3   6
TORSDOF 3
ENDMDL
MODEL      135
REMARK 921   NORMALIZED FREE ENERGY PREDICTED BY IDOCK:   -3.60 KCAL/MOL
REMARK 922        TOTAL FREE ENERGY PREDICTED BY IDOCK:   -5.08 KCAL/MOL
REMARK 923 INTER-LIGAND FREE ENERGY PREDICTED BY IDOCK:   -4.34 KCAL/MOL
REMARK 924 INTRA-LIGAND FREE ENERGY PREDICTED BY IDOCK:   -0.73 KCAL/MOL
REMARK 927      BINDING AFFINITY PREDICTED BY RF-SCORE:    0.00 PKD
ROOT
HETATM    1  C   UNL     1     -11.445   7.933  72.814  1.00  0.00    -0.368 C  
HETATM    2  N   UNL     1     -10.197   8.198  72.120  1.00  0.00    -0.237 N  
HETATM    3  C   UNL     1     -10.242   9.163  71.110  1.00  0.00    -0.314 C  
HETATM    4  C   UNL     1      -8.961   7.812  72.779  1.00  0.00    -0.181 C  
HETATM    5  O   UNL     1     -11.303   9.701  70.790  1.00  0.00    -0.285 OA 
ENDROOT
BRANCH   3   6
HETATM    6  C   UNL     1      -8.918   9.489  70.418  1.00  0.00    -0.291 C  
BRANCH   6   7
HETATM    7  C   UNL     1      -8.993   9.243  68.946  1.00  0.00    -0.136 A  
HETATM    8  C   UNL     1      -9.001  10.099  67.848  1.00  0.00    -0.128 A  
HETATM    9  N   UNL     1      -9.230   9.390  66.687  1.00  0.00    -0.147 NA 
HETATM   10  N   UNL     1      -9.082   7.971  68.405  1.00  0.00    -0.136 NA 
HETATM   11  C   UNL     1      -9.270   8.126  67.038  1.00  0.00    -0.153 A  
HETATM   12  C   UNL     1      -9.026   6.719  69.028  1.00  0.00    -0.131 A  
HETATM   13  C   UNL     1      -9.103   4.231  68.900  1.00  0.00    -0.183 C  
HETATM   14  C   UNL     1      -9.461   6.946  66.267  1.00  0.00    -0.122 A  
HETATM   15  C   UNL     1      -9.180   5.598  68.297  1.00  0.00    -0.116 A  
HETATM   16  C   UNL     1      -9.423   5.736  66.862  1.00  0.00    -0.142 A  
BRANCH   8  17
HETATM   17  C   UNL     1      -8.875  11.551  67.860  1.00  0.00    -0.152 A  
HETATM   18  C   UNL     1      -7.501  13.535  67.517  1.00  0.00    -0.177 A  
HETATM   19  C   UNL     1      -8.601  14.367  67.749  1.00  0.00    -0.171 A  
HETATM   20  C   UNL     1      -9.821  13.786  68.103  1.00  0.00    -0.239 A  
HETATM   21  C   UNL     1      -9.947  12.395  68.173  1.00  0.00    -0.215 A  
HETATM   22  C   UNL     1      -7.638  12.142  67.569  1.00  0.00    -0.151 A  
HETATM   23  C   UNL     1      -8.463  15.856  67.638  1.00  0.00    -0.170 C  
ENDBRANCH   8  17
ENDBRANCH   6   7
ENDBRANCH   3   6
TORSDOF 3
ENDMDL
MODEL      136
REMARK 921   NORMALIZED FREE ENERGY PREDICTED BY IDOCK:   -3.58 KCAL/MOL
REMARK 922        TOTAL FREE ENERGY PREDICTED BY IDOCK:   -5.05 KCAL/MOL
REMARK 923 INTER-LIGAND FREE ENERGY PREDICTED BY IDOCK:   -4.37 KCAL/MOL
REMARK 924 INTRA-LIGAND FREE ENERGY PREDICTED BY IDOCK:   -0.68 KCAL/MOL
REMARK 927      BINDING AFFINITY PREDICTED BY RF-SCORE:    0.00 PKD
ROOT
HETATM    1  C   UNL     1     -10.275   4.721  70.045  1.00  0.00    -0.181 C  
HETATM    2  N   UNL     1     -10.317   6.098  70.506  1.00  0.00    -0.204 N  
HETATM    3  C   UNL     1     -10.404   7.082  69.517  1.00  0.00    -0.213 C  
HETATM    4  C   UNL     1     -10.710   6.338  71.885  1.00  0.00    -0.230 C  
HETATM    5  O   UNL     1     -10.375   6.787  68.322  1.00  0.00    -0.165 OA 
ENDROOT
BRANCH   3   6
HETATM    6  C   UNL     1     -10.510   8.529  70.001  1.00  0.00    -0.226 C  
BRANCH   6   7
HETATM    7  C   UNL     1      -9.207   9.249  69.867  1.00  0.00    -0.195 A  
HETATM    8  C   UNL     1      -8.703  10.107  68.894  1.00  0.00    -0.149 A  
HETATM    9  N   UNL     1      -7.381  10.403  69.152  1.00  0.00    -0.091 NA 
HETATM   10  N   UNL     1      -8.195   9.142  70.805  1.00  0.00    -0.179 NA 
HETATM   11  C   UNL     1      -7.098   9.824  70.295  1.00  0.00    -0.143 A  
HETATM   12  C   UNL     1      -8.174   8.484  72.040  1.00  0.00    -0.130 A  
HETATM   13  C   UNL     1      -6.971   7.817  74.118  1.00  0.00    -0.137 C  
HETATM   14  C   UNL     1      -5.899   9.796  71.059  1.00  0.00    -0.082 A  
HETATM   15  C   UNL     1      -7.047   8.478  72.779  1.00  0.00    -0.057 A  
HETATM   16  C   UNL     1      -5.865   9.153  72.244  1.00  0.00    -0.033 A  
BRANCH   8  17
HETATM   17  C   UNL     1      -9.392  10.595  67.705  1.00  0.00    -0.156 A  
HETATM   18  C   UNL     1     -10.041  10.262  65.379  1.00  0.00    -0.354 A  
HETATM   19  C   UNL     1     -10.808  11.432  65.401  1.00  0.00    -0.292 A  
HETATM   20  C   UNL     1     -10.810  12.214  66.557  1.00  0.00    -0.307 A  
HETATM   21  C   UNL     1     -10.094  11.805  67.688  1.00  0.00    -0.206 A  
HETATM   22  C   UNL     1      -9.342   9.848  66.521  1.00  0.00    -0.206 A  
HETATM   23  C   UNL     1     -11.599  11.843  64.194  1.00  0.00    -0.434 C  
ENDBRANCH   8  17
ENDBRANCH   6   7
ENDBRANCH   3   6
TORSDOF 3
ENDMDL
MODEL      137
REMARK 921   NORMALIZED FREE ENERGY PREDICTED BY IDOCK:   -3.49 KCAL/MOL
REMARK 922        TOTAL FREE ENERGY PREDICTED BY IDOCK:   -4.95 KCAL/MOL
REMARK 923 INTER-LIGAND FREE ENERGY PREDICTED BY IDOCK:   -4.55 KCAL/MOL
REMARK 924 INTRA-LIGAND FREE ENERGY PREDICTED BY IDOCK:   -0.40 KCAL/MOL
REMARK 927      BINDING AFFINITY PREDICTED BY RF-SCORE:    0.00 PKD
ROOT
HETATM    1  C   UNL     1     -11.803  14.570  66.927  1.00  0.00    -0.377 C  
HETATM    2  N   UNL     1     -10.418  14.559  66.491  1.00  0.00    -0.281 N  
HETATM    3  C   UNL     1      -9.639  15.657  66.868  1.00  0.00    -0.230 C  
HETATM    4  C   UNL     1      -9.838  13.280  66.113  1.00  0.00    -0.280 C  
HETATM    5  O   UNL     1     -10.131  16.607  67.476  1.00  0.00    -0.260 OA 
ENDROOT
BRANCH   3   6
HETATM    6  C   UNL     1      -8.165  15.619  66.462  1.00  0.00    -0.227 C  
BRANCH   6   7
HETATM    7  C   UNL     1      -7.271  15.959  67.610  1.00  0.00    -0.159 A  
HETATM    8  C   UNL     1      -6.589  15.175  68.535  1.00  0.00    -0.099 A  
HETATM    9  N   UNL     1      -6.003  15.968  69.500  1.00  0.00    -0.144 NA 
HETATM   10  N   UNL     1      -6.966  17.265  67.958  1.00  0.00    -0.172 NA 
HETATM   11  C   UNL     1      -6.235  17.208  69.137  1.00  0.00    -0.212 A  
HETATM   12  C   UNL     1      -7.299  18.468  67.326  1.00  0.00    -0.217 A  
HETATM   13  C   UNL     1      -7.226  20.958  67.235  1.00  0.00    -0.408 C  
HETATM   14  C   UNL     1      -5.861  18.444  69.734  1.00  0.00    -0.252 A  
HETATM   15  C   UNL     1      -6.924  19.640  67.875  1.00  0.00    -0.290 A  
HETATM   16  C   UNL     1      -6.191  19.609  69.140  1.00  0.00    -0.322 A  
BRANCH   8  17
HETATM   17  C   UNL     1      -6.529  13.719  68.585  1.00  0.00    -0.093 A  
HETATM   18  C   UNL     1      -6.285  11.679  69.898  1.00  0.00    -0.144 A  
HETATM   19  C   UNL     1      -6.523  10.893  68.765  1.00  0.00    -0.053 A  
HETATM   20  C   UNL     1      -6.698  11.526  67.532  1.00  0.00    -0.087 A  
HETATM   21  C   UNL     1      -6.683  12.922  67.445  1.00  0.00    -0.131 A  
HETATM   22  C   UNL     1      -6.291  13.077  69.808  1.00  0.00    -0.063 A  
HETATM   23  C   UNL     1      -6.571   9.398  68.875  1.00  0.00    -0.047 C  
ENDBRANCH   8  17
ENDBRANCH   6   7
ENDBRANCH   3   6
TORSDOF 3
ENDMDL
MODEL      138
REMARK 921   NORMALIZED FREE ENERGY PREDICTED BY IDOCK:   -3.49 KCAL/MOL
REMARK 922        TOTAL FREE ENERGY PREDICTED BY IDOCK:   -4.95 KCAL/MOL
REMARK 923 INTER-LIGAND FREE ENERGY PREDICTED BY IDOCK:   -4.19 KCAL/MOL
REMARK 924 INTRA-LIGAND FREE ENERGY PREDICTED BY IDOCK:   -0.76 KCAL/MOL
REMARK 927      BINDING AFFINITY PREDICTED BY RF-SCORE:    0.00 PKD
ROOT
HETATM    1  C   UNL     1     -12.461  10.206  71.816  1.00  0.00    -0.360 C  
HETATM    2  N   UNL     1     -11.689   9.351  70.931  1.00  0.00    -0.294 N  
HETATM    3  C   UNL     1     -11.836   7.974  71.116  1.00  0.00    -0.284 C  
HETATM    4  C   UNL     1     -11.202   9.927  69.689  1.00  0.00    -0.208 C  
HETATM    5  O   UNL     1     -12.531   7.524  72.027  1.00  0.00    -0.299 OA 
ENDROOT
BRANCH   3   6
HETATM    6  C   UNL     1     -11.071   7.071  70.147  1.00  0.00    -0.323 C  
BRANCH   6   7
HETATM    7  C   UNL     1      -9.725   6.704  70.685  1.00  0.00    -0.172 A  
HETATM    8  C   UNL     1      -8.452   7.219  70.462  1.00  0.00    -0.138 A  
HETATM    9  N   UNL     1      -7.501   6.440  71.090  1.00  0.00    -0.084 NA 
HETATM   10  N   UNL     1      -9.538   5.669  71.586  1.00  0.00    -0.153 NA 
HETATM   11  C   UNL     1      -8.168   5.527  71.757  1.00  0.00    -0.119 A  
HETATM   12  C   UNL     1     -10.475   4.856  72.234  1.00  0.00    -0.204 A  
HETATM   13  C   UNL     1     -11.006   2.984  73.791  1.00  0.00    -0.313 C  
HETATM   14  C   UNL     1      -7.721   4.469  72.596  1.00  0.00    -0.086 A  
HETATM   15  C   UNL     1     -10.055   3.869  73.050  1.00  0.00    -0.213 A  
HETATM   16  C   UNL     1      -8.616   3.670  73.213  1.00  0.00    -0.087 A  
BRANCH   8  17
HETATM   17  C   UNL     1      -8.094   8.361  69.629  1.00  0.00    -0.115 A  
HETATM   18  C   UNL     1      -8.011   9.397  67.425  1.00  0.00    -0.106 A  
HETATM   19  C   UNL     1      -7.531  10.590  67.977  1.00  0.00    -0.090 A  
HETATM   20  C   UNL     1      -7.272  10.639  69.348  1.00  0.00    -0.126 A  
HETATM   21  C   UNL     1      -7.535   9.530  70.158  1.00  0.00    -0.137 A  
HETATM   22  C   UNL     1      -8.292   8.296  68.244  1.00  0.00    -0.132 A  
HETATM   23  C   UNL     1      -7.285  11.785  67.105  1.00  0.00    -0.147 C  
ENDBRANCH   8  17
ENDBRANCH   6   7
ENDBRANCH   3   6
TORSDOF 3
ENDMDL
MODEL      139
REMARK 921   NORMALIZED FREE ENERGY PREDICTED BY IDOCK:   -3.47 KCAL/MOL
REMARK 922        TOTAL FREE ENERGY PREDICTED BY IDOCK:   -4.92 KCAL/MOL
REMARK 923 INTER-LIGAND FREE ENERGY PREDICTED BY IDOCK:   -5.43 KCAL/MOL
REMARK 924 INTRA-LIGAND FREE ENERGY PREDICTED BY IDOCK:    0.51 KCAL/MOL
REMARK 927      BINDING AFFINITY PREDICTED BY RF-SCORE:    0.00 PKD
ROOT
HETATM    1  C   UNL     1     -11.001  20.012  66.158  1.00  0.00     0.053 C  
HETATM    2  N   UNL     1     -10.714  19.001  67.160  1.00  0.00    -0.465 N  
HETATM    3  C   UNL     1     -10.408  17.723  66.683  1.00  0.00    -0.345 C  
HETATM    4  C   UNL     1     -10.332  19.453  68.487  1.00  0.00    -0.315 C  
HETATM    5  O   UNL     1     -10.451  17.466  65.480  1.00  0.00    -0.624 OA 
ENDROOT
BRANCH   3   6
HETATM    6  C   UNL     1     -10.047  16.671  67.733  1.00  0.00    -0.275 C  
BRANCH   6   7
HETATM    7  C   UNL     1      -8.616  16.254  67.621  1.00  0.00    -0.173 A  
HETATM    8  C   UNL     1      -8.004  15.007  67.539  1.00  0.00    -0.178 A  
HETATM    9  N   UNL     1      -6.632  15.139  67.595  1.00  0.00    -0.167 NA 
HETATM   10  N   UNL     1      -7.573  17.164  67.587  1.00  0.00    -0.165 NA 
HETATM   11  C   UNL     1      -6.395  16.429  67.619  1.00  0.00    -0.153 A  
HETATM   12  C   UNL     1      -7.596  18.563  67.548  1.00  0.00    -0.228 A  
HETATM   13  C   UNL     1      -6.398  20.747  67.493  1.00  0.00    -0.346 C  
HETATM   14  C   UNL     1      -5.173  17.156  67.662  1.00  0.00    -0.129 A  
HETATM   15  C   UNL     1      -6.440  19.254  67.561  1.00  0.00    -0.218 A  
HETATM   16  C   UNL     1      -5.187  18.504  67.639  1.00  0.00    -0.159 A  
BRANCH   8  17
HETATM   17  C   UNL     1      -8.658  13.704  67.483  1.00  0.00    -0.197 A  
HETATM   18  C   UNL     1     -10.376  12.266  66.523  1.00  0.00    -0.250 A  
HETATM   19  C   UNL     1      -9.891  11.167  67.242  1.00  0.00    -0.198 A  
HETATM   20  C   UNL     1      -8.831  11.359  68.129  1.00  0.00    -0.162 A  
HETATM   21  C   UNL     1      -8.236  12.618  68.258  1.00  0.00    -0.164 A  
HETATM   22  C   UNL     1      -9.763  13.520  66.642  1.00  0.00    -0.281 A  
HETATM   23  C   UNL     1     -10.514   9.814  67.071  1.00  0.00    -0.295 C  
ENDBRANCH   8  17
ENDBRANCH   6   7
ENDBRANCH   3   6
TORSDOF 3
ENDMDL
MODEL      140
REMARK 921   NORMALIZED FREE ENERGY PREDICTED BY IDOCK:   -3.42 KCAL/MOL
REMARK 922        TOTAL FREE ENERGY PREDICTED BY IDOCK:   -4.86 KCAL/MOL
REMARK 923 INTER-LIGAND FREE ENERGY PREDICTED BY IDOCK:   -3.94 KCAL/MOL
REMARK 924 INTRA-LIGAND FREE ENERGY PREDICTED BY IDOCK:   -0.92 KCAL/MOL
REMARK 927      BINDING AFFINITY PREDICTED BY RF-SCORE:    0.00 PKD
ROOT
HETATM    1  C   UNL     1      -7.814   4.070  67.054  1.00  0.00    -0.095 C  
HETATM    2  N   UNL     1      -8.864   5.043  66.811  1.00  0.00    -0.107 N  
HETATM    3  C   UNL     1      -9.595   5.459  67.927  1.00  0.00    -0.129 C  
HETATM    4  C   UNL     1      -8.793   5.824  65.587  1.00  0.00    -0.136 C  
HETATM    5  O   UNL     1      -9.396   4.966  69.038  1.00  0.00    -0.112 OA 
ENDROOT
BRANCH   3   6
HETATM    6  C   UNL     1     -10.661   6.528  67.685  1.00  0.00    -0.381 C  
BRANCH   6   7
HETATM    7  C   UNL     1     -10.465   7.711  68.577  1.00  0.00    -0.174 A  
HETATM    8  C   UNL     1      -9.610   8.808  68.510  1.00  0.00    -0.150 A  
HETATM    9  N   UNL     1      -9.708   9.564  69.660  1.00  0.00    -0.187 NA 
HETATM   10  N   UNL     1     -11.192   7.897  69.741  1.00  0.00    -0.074 NA 
HETATM   11  C   UNL     1     -10.657   9.010  70.377  1.00  0.00    -0.218 A  
HETATM   12  C   UNL     1     -12.256   7.157  70.269  1.00  0.00     0.061 A  
HETATM   13  C   UNL     1     -13.947   6.771  72.058  1.00  0.00    -0.096 C  
HETATM   14  C   UNL     1     -11.200   9.362  71.643  1.00  0.00    -0.431 A  
HETATM   15  C   UNL     1     -12.791   7.505  71.455  1.00  0.00    -0.397 A  
HETATM   16  C   UNL     1     -12.217   8.646  72.166  1.00  0.00    -0.453 A  
BRANCH   8  17
HETATM   17  C   UNL     1      -8.663   9.126  67.448  1.00  0.00    -0.118 A  
HETATM   18  C   UNL     1      -8.256   9.820  65.147  1.00  0.00    -0.140 A  
HETATM   19  C   UNL     1      -6.878   9.871  65.381  1.00  0.00    -0.112 A  
HETATM   20  C   UNL     1      -6.393   9.484  66.632  1.00  0.00    -0.066 A  
HETATM   21  C   UNL     1      -7.278   9.100  67.645  1.00  0.00    -0.083 A  
HETATM   22  C   UNL     1      -9.139   9.454  66.172  1.00  0.00    -0.214 A  
HETATM   23  C   UNL     1      -5.940  10.317  64.298  1.00  0.00    -0.133 C  
ENDBRANCH   8  17
ENDBRANCH   6   7
ENDBRANCH   3   6
TORSDOF 3
ENDMDL
MODEL      141
REMARK 921   NORMALIZED FREE ENERGY PREDICTED BY IDOCK:   -3.40 KCAL/MOL
REMARK 922        TOTAL FREE ENERGY PREDICTED BY IDOCK:   -4.84 KCAL/MOL
REMARK 923 INTER-LIGAND FREE ENERGY PREDICTED BY IDOCK:   -4.13 KCAL/MOL
REMARK 924 INTRA-LIGAND FREE ENERGY PREDICTED BY IDOCK:   -0.71 KCAL/MOL
REMARK 927      BINDING AFFINITY PREDICTED BY RF-SCORE:    0.00 PKD
ROOT
HETATM    1  C   UNL     1     -10.179   6.343  71.445  1.00  0.00    -0.199 C  
HETATM    2  N   UNL     1     -10.647   7.010  70.243  1.00  0.00    -0.219 N  
HETATM    3  C   UNL     1     -10.602   6.263  69.062  1.00  0.00    -0.267 C  
HETATM    4  C   UNL     1     -11.509   8.169  70.404  1.00  0.00    -0.125 C  
HETATM    5  O   UNL     1     -10.124   5.128  69.044  1.00  0.00    -0.187 OA 
ENDROOT
BRANCH   3   6
HETATM    6  C   UNL     1     -11.150   6.941  67.805  1.00  0.00    -0.223 C  
BRANCH   6   7
HETATM    7  C   UNL     1     -10.061   7.588  67.012  1.00  0.00    -0.261 A  
HETATM    8  C   UNL     1      -8.998   7.071  66.279  1.00  0.00    -0.151 A  
HETATM    9  N   UNL     1      -8.176   8.089  65.839  1.00  0.00    -0.120 NA 
HETATM   10  N   UNL     1      -9.945   8.963  66.887  1.00  0.00    -0.222 NA 
HETATM   11  C   UNL     1      -8.759   9.206  66.207  1.00  0.00    -0.140 A  
HETATM   12  C   UNL     1     -10.787   9.985  67.339  1.00  0.00    -0.249 A  
HETATM   13  C   UNL     1     -11.317  12.409  67.571  1.00  0.00    -0.375 C  
HETATM   14  C   UNL     1      -8.383  10.565  66.017  1.00  0.00    -0.158 A  
HETATM   15  C   UNL     1     -10.447  11.273  67.137  1.00  0.00    -0.259 A  
HETATM   16  C   UNL     1      -9.181  11.557  66.461  1.00  0.00    -0.203 A  
BRANCH   8  17
HETATM   17  C   UNL     1      -8.689   5.666  66.041  1.00  0.00    -0.144 A  
HETATM   18  C   UNL     1      -9.408   3.467  65.276  1.00  0.00    -0.155 A  
HETATM   19  C   UNL     1      -8.116   2.958  65.446  1.00  0.00    -0.086 A  
HETATM   20  C   UNL     1      -7.130   3.792  65.977  1.00  0.00    -0.063 A  
HETATM   21  C   UNL     1      -7.422   5.124  66.286  1.00  0.00    -0.087 A  
HETATM   22  C   UNL     1      -9.689   4.808  65.568  1.00  0.00    -0.166 A  
HETATM   23  C   UNL     1      -7.806   1.537  65.080  1.00  0.00    -0.071 C  
ENDBRANCH   8  17
ENDBRANCH   6   7
ENDBRANCH   3   6
TORSDOF 3
ENDMDL
MODEL      142
REMARK 921   NORMALIZED FREE ENERGY PREDICTED BY IDOCK:   -3.39 KCAL/MOL
REMARK 922        TOTAL FREE ENERGY PREDICTED BY IDOCK:   -4.83 KCAL/MOL
REMARK 923 INTER-LIGAND FREE ENERGY PREDICTED BY IDOCK:   -3.98 KCAL/MOL
REMARK 924 INTRA-LIGAND FREE ENERGY PREDICTED BY IDOCK:   -0.85 KCAL/MOL
REMARK 927      BINDING AFFINITY PREDICTED BY RF-SCORE:    0.00 PKD
ROOT
HETATM    1  C   UNL     1     -10.848   6.055  68.886  1.00  0.00    -0.331 C  
HETATM    2  N   UNL     1     -10.773   7.371  69.496  1.00  0.00    -0.237 N  
HETATM    3  C   UNL     1     -10.767   8.462  68.622  1.00  0.00    -0.034 C  
HETATM    4  C   UNL     1     -11.151   7.491  70.894  1.00  0.00    -0.263 C  
HETATM    5  O   UNL     1     -10.757   8.299  67.401  1.00  0.00    -0.270 OA 
ENDROOT
BRANCH   3   6
HETATM    6  C   UNL     1     -10.749   9.850  69.263  1.00  0.00    -0.247 C  
BRANCH   6   7
HETATM    7  C   UNL     1      -9.559  10.641  68.825  1.00  0.00    -0.186 A  
HETATM    8  C   UNL     1      -8.192  10.465  69.014  1.00  0.00    -0.141 A  
HETATM    9  N   UNL     1      -7.495  11.554  68.531  1.00  0.00    -0.108 NA 
HETATM   10  N   UNL     1      -9.669  11.805  68.083  1.00  0.00    -0.186 NA 
HETATM   11  C   UNL     1      -8.391  12.337  67.976  1.00  0.00    -0.165 A  
HETATM   12  C   UNL     1     -10.797  12.418  67.526  1.00  0.00    -0.236 A  
HETATM   13  C   UNL     1     -11.832  14.277  66.228  1.00  0.00    -0.420 C  
HETATM   14  C   UNL     1      -8.257  13.586  67.308  1.00  0.00    -0.164 A  
HETATM   15  C   UNL     1     -10.670  13.587  66.869  1.00  0.00    -0.274 A  
HETATM   16  C   UNL     1      -9.341  14.191  66.780  1.00  0.00    -0.295 A  
BRANCH   8  17
HETATM   17  C   UNL     1      -7.529   9.357  69.691  1.00  0.00    -0.084 A  
HETATM   18  C   UNL     1      -6.065   7.411  69.576  1.00  0.00    -0.030 A  
HETATM   19  C   UNL     1      -6.121   7.258  70.966  1.00  0.00    -0.036 A  
HETATM   20  C   UNL     1      -6.936   8.117  71.705  1.00  0.00    -0.076 A  
HETATM   21  C   UNL     1      -7.643   9.142  71.069  1.00  0.00    -0.124 A  
HETATM   22  C   UNL     1      -6.760   8.452  68.947  1.00  0.00    -0.053 A  
HETATM   23  C   UNL     1      -5.331   6.177  71.642  1.00  0.00    -0.022 C  
ENDBRANCH   8  17
ENDBRANCH   6   7
ENDBRANCH   3   6
TORSDOF 3
ENDMDL
MODEL      143
REMARK 921   NORMALIZED FREE ENERGY PREDICTED BY IDOCK:   -3.37 KCAL/MOL
REMARK 922        TOTAL FREE ENERGY PREDICTED BY IDOCK:   -4.81 KCAL/MOL
REMARK 923 INTER-LIGAND FREE ENERGY PREDICTED BY IDOCK:   -5.56 KCAL/MOL
REMARK 924 INTRA-LIGAND FREE ENERGY PREDICTED BY IDOCK:    0.76 KCAL/MOL
REMARK 927      BINDING AFFINITY PREDICTED BY RF-SCORE:    0.00 PKD
ROOT
HETATM    1  C   UNL     1     -11.072   5.409  72.654  1.00  0.00    -0.278 C  
HETATM    2  N   UNL     1     -10.815   6.566  71.815  1.00  0.00    -0.232 N  
HETATM    3  C   UNL     1      -9.516   6.694  71.315  1.00  0.00    -0.162 C  
HETATM    4  C   UNL     1     -11.957   7.226  71.205  1.00  0.00    -0.328 C  
HETATM    5  O   UNL     1      -8.630   5.901  71.633  1.00  0.00    -0.130 OA 
ENDROOT
BRANCH   3   6
HETATM    6  C   UNL     1      -9.258   7.879  70.382  1.00  0.00    -0.158 C  
BRANCH   6   7
HETATM    7  C   UNL     1      -9.800   7.626  69.012  1.00  0.00    -0.168 A  
HETATM    8  C   UNL     1     -10.470   8.437  68.102  1.00  0.00    -0.174 A  
HETATM    9  N   UNL     1     -10.894   7.696  67.018  1.00  0.00    -0.277 NA 
HETATM   10  N   UNL     1      -9.702   6.395  68.386  1.00  0.00    -0.130 NA 
HETATM   11  C   UNL     1     -10.423   6.486  67.203  1.00  0.00    -0.287 A  
HETATM   12  C   UNL     1      -9.048   5.225  68.791  1.00  0.00    -0.112 A  
HETATM   13  C   UNL     1      -8.424   2.845  68.393  1.00  0.00    -0.100 C  
HETATM   14  C   UNL     1     -10.528   5.310  66.410  1.00  0.00    -0.347 A  
HETATM   15  C   UNL     1      -9.123   4.117  68.028  1.00  0.00    -0.172 A  
HETATM   16  C   UNL     1      -9.913   4.174  66.799  1.00  0.00    -0.140 A  
BRANCH   8  17
HETATM   17  C   UNL     1     -10.787   9.853  68.247  1.00  0.00    -0.275 A  
HETATM   18  C   UNL     1     -11.173  12.027  67.214  1.00  0.00    -0.371 A  
HETATM   19  C   UNL     1     -11.515  12.582  68.452  1.00  0.00    -0.355 A  
HETATM   20  C   UNL     1     -11.426  11.783  69.594  1.00  0.00    -0.341 A  
HETATM   21  C   UNL     1     -11.050  10.440  69.490  1.00  0.00    -0.314 A  
HETATM   22  C   UNL     1     -10.816  10.676  67.114  1.00  0.00    -0.328 A  
HETATM   23  C   UNL     1     -11.950  14.014  68.548  1.00  0.00    -0.383 C  
ENDBRANCH   8  17
ENDBRANCH   6   7
ENDBRANCH   3   6
TORSDOF 3
ENDMDL
MODEL      144
REMARK 921   NORMALIZED FREE ENERGY PREDICTED BY IDOCK:   -3.35 KCAL/MOL
REMARK 922        TOTAL FREE ENERGY PREDICTED BY IDOCK:   -4.78 KCAL/MOL
REMARK 923 INTER-LIGAND FREE ENERGY PREDICTED BY IDOCK:   -4.72 KCAL/MOL
REMARK 924 INTRA-LIGAND FREE ENERGY PREDICTED BY IDOCK:   -0.06 KCAL/MOL
REMARK 927      BINDING AFFINITY PREDICTED BY RF-SCORE:    0.00 PKD
ROOT
HETATM    1  C   UNL     1      -8.403   8.099  64.211  1.00  0.00    -0.030 C  
HETATM    2  N   UNL     1      -8.346   8.307  65.647  1.00  0.00    -0.140 N  
HETATM    3  C   UNL     1      -8.106   9.616  66.075  1.00  0.00    -0.112 C  
HETATM    4  C   UNL     1      -8.961   7.305  66.501  1.00  0.00    -0.152 C  
HETATM    5  O   UNL     1      -7.886  10.520  65.268  1.00  0.00    -0.151 OA 
ENDROOT
BRANCH   3   6
HETATM    6  C   UNL     1      -8.105   9.851  67.586  1.00  0.00    -0.110 C  
BRANCH   6   7
HETATM    7  C   UNL     1      -9.425  10.366  68.062  1.00  0.00    -0.143 A  
HETATM    8  C   UNL     1     -10.387   9.839  68.917  1.00  0.00    -0.210 A  
HETATM    9  N   UNL     1     -11.511  10.641  68.930  1.00  0.00    -0.271 NA 
HETATM   10  N   UNL     1      -9.936  11.589  67.661  1.00  0.00    -0.182 NA 
HETATM   11  C   UNL     1     -11.221  11.679  68.181  1.00  0.00    -0.263 A  
HETATM   12  C   UNL     1      -9.363  12.594  66.874  1.00  0.00    -0.228 A  
HETATM   13  C   UNL     1      -9.507  14.819  65.761  1.00  0.00    -0.209 C  
HETATM   14  C   UNL     1     -11.984  12.831  67.844  1.00  0.00    -0.320 A  
HETATM   15  C   UNL     1     -10.073  13.699  66.574  1.00  0.00    -0.286 A  
HETATM   16  C   UNL     1     -11.444  13.798  67.073  1.00  0.00    -0.368 A  
BRANCH   8  17
HETATM   17  C   UNL     1     -10.319   8.585  69.658  1.00  0.00    -0.218 A  
HETATM   18  C   UNL     1     -10.878   6.218  69.820  1.00  0.00    -0.399 A  
HETATM   19  C   UNL     1     -10.120   6.094  70.989  1.00  0.00    -0.231 A  
HETATM   20  C   UNL     1      -9.518   7.235  71.524  1.00  0.00    -0.160 A  
HETATM   21  C   UNL     1      -9.633   8.467  70.872  1.00  0.00    -0.228 A  
HETATM   22  C   UNL     1     -10.974   7.451  69.161  1.00  0.00    -0.057 A  
HETATM   23  C   UNL     1      -9.975   4.762  71.662  1.00  0.00    -0.257 C  
ENDBRANCH   8  17
ENDBRANCH   6   7
ENDBRANCH   3   6
TORSDOF 3
ENDMDL
MODEL      145
REMARK 921   NORMALIZED FREE ENERGY PREDICTED BY IDOCK:   -3.32 KCAL/MOL
REMARK 922        TOTAL FREE ENERGY PREDICTED BY IDOCK:   -4.75 KCAL/MOL
REMARK 923 INTER-LIGAND FREE ENERGY PREDICTED BY IDOCK:   -5.26 KCAL/MOL
REMARK 924 INTRA-LIGAND FREE ENERGY PREDICTED BY IDOCK:    0.51 KCAL/MOL
REMARK 927      BINDING AFFINITY PREDICTED BY RF-SCORE:    0.00 PKD
ROOT
HETATM    1  C   UNL     1      -7.323  15.069  67.629  1.00  0.00    -0.188 C  
HETATM    2  N   UNL     1      -8.177  13.960  68.017  1.00  0.00    -0.149 N  
HETATM    3  C   UNL     1      -9.543  14.236  68.121  1.00  0.00    -0.218 C  
HETATM    4  C   UNL     1      -7.662  12.614  67.835  1.00  0.00    -0.141 C  
HETATM    5  O   UNL     1      -9.977  15.377  67.957  1.00  0.00    -0.219 OA 
ENDROOT
BRANCH   3   6
HETATM    6  C   UNL     1     -10.453  13.057  68.470  1.00  0.00    -0.261 C  
BRANCH   6   7
HETATM    7  C   UNL     1     -10.685  12.174  67.287  1.00  0.00    -0.229 A  
HETATM    8  C   UNL     1     -10.526  10.806  67.090  1.00  0.00    -0.237 A  
HETATM    9  N   UNL     1     -10.738  10.482  65.765  1.00  0.00    -0.060 NA 
HETATM   10  N   UNL     1     -11.141  12.658  66.072  1.00  0.00    -0.277 NA 
HETATM   11  C   UNL     1     -11.108  11.596  65.178  1.00  0.00    -0.237 A  
HETATM   12  C   UNL     1     -11.555  13.945  65.711  1.00  0.00    -0.338 A  
HETATM   13  C   UNL     1     -12.403  15.545  63.999  1.00  0.00     0.150 C  
HETATM   14  C   UNL     1     -11.470  11.867  63.829  1.00  0.00    -0.542 A  
HETATM   15  C   UNL     1     -11.925  14.198  64.440  1.00  0.00    -0.478 A  
HETATM   16  C   UNL     1     -11.857  13.108  63.469  1.00  0.00    -0.539 A  
BRANCH   8  17
HETATM   17  C   UNL     1     -10.114   9.813  68.076  1.00  0.00    -0.204 A  
HETATM   18  C   UNL     1      -9.106   7.650  68.570  1.00  0.00    -0.131 A  
HETATM   19  C   UNL     1      -9.186   7.900  69.945  1.00  0.00    -0.153 A  
HETATM   20  C   UNL     1      -9.792   9.081  70.379  1.00  0.00    -0.242 A  
HETATM   21  C   UNL     1     -10.264  10.015  69.452  1.00  0.00    -0.239 A  
HETATM   22  C   UNL     1      -9.563   8.598  67.647  1.00  0.00    -0.190 A  
HETATM   23  C   UNL     1      -8.645   6.907  70.930  1.00  0.00    -0.136 C  
ENDBRANCH   8  17
ENDBRANCH   6   7
ENDBRANCH   3   6
TORSDOF 3
ENDMDL
MODEL      146
REMARK 921   NORMALIZED FREE ENERGY PREDICTED BY IDOCK:   -3.27 KCAL/MOL
REMARK 922        TOTAL FREE ENERGY PREDICTED BY IDOCK:   -4.69 KCAL/MOL
REMARK 923 INTER-LIGAND FREE ENERGY PREDICTED BY IDOCK:   -4.21 KCAL/MOL
REMARK 924 INTRA-LIGAND FREE ENERGY PREDICTED BY IDOCK:   -0.48 KCAL/MOL
REMARK 927      BINDING AFFINITY PREDICTED BY RF-SCORE:    0.00 PKD
ROOT
HETATM    1  C   UNL     1      -9.677   8.590  72.482  1.00  0.00    -0.256 C  
HETATM    2  N   UNL     1     -10.437   8.869  71.276  1.00  0.00    -0.260 N  
HETATM    3  C   UNL     1      -9.822   8.540  70.065  1.00  0.00    -0.179 C  
HETATM    4  C   UNL     1     -11.876   9.030  71.405  1.00  0.00    -0.325 C  
HETATM    5  O   UNL     1      -8.671   8.104  70.033  1.00  0.00    -0.128 OA 
ENDROOT
BRANCH   3   6
HETATM    6  C   UNL     1     -10.643   8.777  68.796  1.00  0.00    -0.174 C  
BRANCH   6   7
HETATM    7  C   UNL     1      -9.987   9.771  67.895  1.00  0.00    -0.163 A  
HETATM    8  C   UNL     1      -9.153   9.632  66.789  1.00  0.00    -0.146 A  
HETATM    9  N   UNL     1      -8.687  10.864  66.379  1.00  0.00    -0.164 NA 
HETATM   10  N   UNL     1     -10.130  11.139  68.061  1.00  0.00    -0.170 NA 
HETATM   11  C   UNL     1      -9.284  11.748  67.144  1.00  0.00    -0.179 A  
HETATM   12  C   UNL     1     -10.926  11.861  68.958  1.00  0.00    -0.219 A  
HETATM   13  C   UNL     1     -11.720  14.035  69.882  1.00  0.00    -0.368 C  
HETATM   14  C   UNL     1      -9.204  13.167  67.171  1.00  0.00    -0.227 A  
HETATM   15  C   UNL     1     -10.874  13.207  68.968  1.00  0.00    -0.202 A  
HETATM   16  C   UNL     1      -9.957  13.871  68.041  1.00  0.00    -0.241 A  
BRANCH   8  17
HETATM   17  C   UNL     1      -8.725   8.389  66.157  1.00  0.00    -0.175 A  
HETATM   18  C   UNL     1      -7.917   7.221  64.177  1.00  0.00    -0.084 A  
HETATM   19  C   UNL     1      -7.773   6.035  64.906  1.00  0.00    -0.099 A  
HETATM   20  C   UNL     1      -8.170   6.016  66.244  1.00  0.00    -0.118 A  
HETATM   21  C   UNL     1      -8.656   7.177  66.854  1.00  0.00    -0.124 A  
HETATM   22  C   UNL     1      -8.386   8.385  64.798  1.00  0.00    -0.151 A  
HETATM   23  C   UNL     1      -7.218   4.804  64.252  1.00  0.00    -0.054 C  
ENDBRANCH   8  17
ENDBRANCH   6   7
ENDBRANCH   3   6
TORSDOF 3
ENDMDL
MODEL      147
REMARK 921   NORMALIZED FREE ENERGY PREDICTED BY IDOCK:   -3.26 KCAL/MOL
REMARK 922        TOTAL FREE ENERGY PREDICTED BY IDOCK:   -4.68 KCAL/MOL
REMARK 923 INTER-LIGAND FREE ENERGY PREDICTED BY IDOCK:   -4.09 KCAL/MOL
REMARK 924 INTRA-LIGAND FREE ENERGY PREDICTED BY IDOCK:   -0.59 KCAL/MOL
REMARK 927      BINDING AFFINITY PREDICTED BY RF-SCORE:    0.00 PKD
ROOT
HETATM    1  C   UNL     1      -8.363   6.651  66.099  1.00  0.00    -0.130 C  
HETATM    2  N   UNL     1      -8.336   7.537  67.249  1.00  0.00    -0.118 N  
HETATM    3  C   UNL     1      -8.923   7.050  68.421  1.00  0.00    -0.122 C  
HETATM    4  C   UNL     1      -7.359   8.613  67.251  1.00  0.00    -0.088 C  
HETATM    5  O   UNL     1      -9.490   5.958  68.443  1.00  0.00    -0.118 OA 
ENDROOT
BRANCH   3   6
HETATM    6  C   UNL     1      -8.842   7.956  69.651  1.00  0.00    -0.138 C  
BRANCH   6   7
HETATM    7  C   UNL     1      -9.930   7.652  70.629  1.00  0.00    -0.183 A  
HETATM    8  C   UNL     1     -10.142   6.587  71.499  1.00  0.00    -0.190 A  
HETATM    9  N   UNL     1     -11.379   6.695  72.100  1.00  0.00    -0.262 NA 
HETATM   10  N   UNL     1     -11.016   8.490  70.822  1.00  0.00    -0.241 NA 
HETATM   11  C   UNL     1     -11.882   7.835  71.688  1.00  0.00    -0.287 A  
HETATM   12  C   UNL     1     -11.290   9.752  70.282  1.00  0.00    -0.272 A  
HETATM   13  C   UNL     1     -12.785  11.734  70.061  1.00  0.00     0.134 C  
HETATM   14  C   UNL     1     -13.116   8.476  71.986  1.00  0.00    -0.403 A  
HETATM   15  C   UNL     1     -12.447  10.374  70.584  1.00  0.00    -0.437 A  
HETATM   16  C   UNL     1     -13.395   9.686  71.459  1.00  0.00    -0.468 A  
BRANCH   8  17
HETATM   17  C   UNL     1      -9.263   5.447  71.729  1.00  0.00    -0.160 A  
HETATM   18  C   UNL     1      -8.886   3.041  71.621  1.00  0.00    -0.124 A  
HETATM   19  C   UNL     1      -7.561   3.205  72.041  1.00  0.00    -0.053 A  
HETATM   20  C   UNL     1      -7.114   4.487  72.368  1.00  0.00    -0.070 A  
HETATM   21  C   UNL     1      -7.963   5.589  72.229  1.00  0.00    -0.107 A  
HETATM   22  C   UNL     1      -9.726   4.151  71.464  1.00  0.00    -0.243 A  
HETATM   23  C   UNL     1      -6.649   2.021  72.155  1.00  0.00    -0.015 C  
ENDBRANCH   8  17
ENDBRANCH   6   7
ENDBRANCH   3   6
TORSDOF 3
ENDMDL
MODEL      148
REMARK 921   NORMALIZED FREE ENERGY PREDICTED BY IDOCK:   -3.20 KCAL/MOL
REMARK 922        TOTAL FREE ENERGY PREDICTED BY IDOCK:   -4.61 KCAL/MOL
REMARK 923 INTER-LIGAND FREE ENERGY PREDICTED BY IDOCK:   -3.95 KCAL/MOL
REMARK 924 INTRA-LIGAND FREE ENERGY PREDICTED BY IDOCK:   -0.66 KCAL/MOL
REMARK 927      BINDING AFFINITY PREDICTED BY RF-SCORE:    0.00 PKD
ROOT
HETATM    1  C   UNL     1     -12.041  13.420  66.901  1.00  0.00    -0.354 C  
HETATM    2  N   UNL     1     -11.710  12.286  67.746  1.00  0.00    -0.348 N  
HETATM    3  C   UNL     1     -11.067  11.213  67.121  1.00  0.00    -0.287 C  
HETATM    4  C   UNL     1     -11.649  12.506  69.181  1.00  0.00    -0.320 C  
HETATM    5  O   UNL     1     -10.862  11.214  65.907  1.00  0.00    -0.240 OA 
ENDROOT
BRANCH   3   6
HETATM    6  C   UNL     1     -10.663  10.043  68.019  1.00  0.00    -0.303 C  
BRANCH   6   7
HETATM    7  C   UNL     1      -9.346   9.467  67.609  1.00  0.00    -0.127 A  
HETATM    8  C   UNL     1      -8.046   9.961  67.663  1.00  0.00    -0.110 A  
HETATM    9  N   UNL     1      -7.177   9.099  67.026  1.00  0.00    -0.089 NA 
HETATM   10  N   UNL     1      -9.226   8.208  67.044  1.00  0.00    -0.146 NA 
HETATM   11  C   UNL     1      -7.897   8.061  66.669  1.00  0.00    -0.098 A  
HETATM   12  C   UNL     1     -10.191   7.218  66.830  1.00  0.00    -0.269 A  
HETATM   13  C   UNL     1     -10.828   4.962  65.983  1.00  0.00    -0.137 C  
HETATM   14  C   UNL     1      -7.538   6.861  65.995  1.00  0.00    -0.093 A  
HETATM   15  C   UNL     1      -9.849   6.069  66.216  1.00  0.00    -0.102 A  
HETATM   16  C   UNL     1      -8.465   5.907  65.772  1.00  0.00    -0.148 A  
BRANCH   8  17
HETATM   17  C   UNL     1      -7.608  11.234  68.222  1.00  0.00    -0.114 A  
HETATM   18  C   UNL     1      -7.673  13.670  68.180  1.00  0.00    -0.138 A  
HETATM   19  C   UNL     1      -6.887  13.735  69.336  1.00  0.00    -0.044 A  
HETATM   20  C   UNL     1      -6.409  12.547  69.892  1.00  0.00    -0.039 A  
HETATM   21  C   UNL     1      -6.754  11.314  69.328  1.00  0.00    -0.110 A  
HETATM   22  C   UNL     1      -8.031  12.432  67.632  1.00  0.00    -0.164 A  
HETATM   23  C   UNL     1      -6.552  15.061  69.952  1.00  0.00    -0.170 C  
ENDBRANCH   8  17
ENDBRANCH   6   7
ENDBRANCH   3   6
TORSDOF 3
ENDMDL
MODEL      149
REMARK 921   NORMALIZED FREE ENERGY PREDICTED BY IDOCK:   -3.15 KCAL/MOL
REMARK 922        TOTAL FREE ENERGY PREDICTED BY IDOCK:   -4.55 KCAL/MOL
REMARK 923 INTER-LIGAND FREE ENERGY PREDICTED BY IDOCK:   -3.73 KCAL/MOL
REMARK 924 INTRA-LIGAND FREE ENERGY PREDICTED BY IDOCK:   -0.82 KCAL/MOL
REMARK 927      BINDING AFFINITY PREDICTED BY RF-SCORE:    0.00 PKD
ROOT
HETATM    1  C   UNL     1      -6.715   2.844  65.738  1.00  0.00    -0.043 C  
HETATM    2  N   UNL     1      -7.948   3.610  65.685  1.00  0.00    -0.092 N  
HETATM    3  C   UNL     1      -8.204   4.450  66.772  1.00  0.00    -0.102 C  
HETATM    4  C   UNL     1      -8.571   3.799  64.386  1.00  0.00    -0.102 C  
HETATM    5  O   UNL     1      -7.452   4.477  67.747  1.00  0.00    -0.072 OA 
ENDROOT
BRANCH   3   6
HETATM    6  C   UNL     1      -9.471   5.304  66.691  1.00  0.00    -0.148 C  
BRANCH   6   7
HETATM    7  C   UNL     1      -9.233   6.687  67.203  1.00  0.00    -0.126 A  
HETATM    8  C   UNL     1      -9.424   7.274  68.451  1.00  0.00    -0.142 A  
HETATM    9  N   UNL     1      -9.188   8.632  68.385  1.00  0.00    -0.138 NA 
HETATM   10  N   UNL     1      -8.735   7.703  66.405  1.00  0.00    -0.144 NA 
HETATM   11  C   UNL     1      -8.774   8.867  67.162  1.00  0.00    -0.120 A  
HETATM   12  C   UNL     1      -8.278   7.671  65.083  1.00  0.00    -0.128 A  
HETATM   13  C   UNL     1      -7.346   8.834  63.086  1.00  0.00    -0.099 C  
HETATM   14  C   UNL     1      -8.372  10.074  66.526  1.00  0.00    -0.126 A  
HETATM   15  C   UNL     1      -7.871   8.808  64.486  1.00  0.00    -0.129 A  
HETATM   16  C   UNL     1      -7.943  10.054  65.248  1.00  0.00    -0.143 A  
BRANCH   8  17
HETATM   17  C   UNL     1      -9.886   6.623  69.672  1.00  0.00    -0.168 A  
HETATM   18  C   UNL     1      -9.394   5.250  71.624  1.00  0.00    -0.178 A  
HETATM   19  C   UNL     1     -10.692   5.437  72.112  1.00  0.00    -0.286 A  
HETATM   20  C   UNL     1     -11.602   6.163  71.341  1.00  0.00    -0.283 A  
HETATM   21  C   UNL     1     -11.204   6.733  70.128  1.00  0.00    -0.387 A  
HETATM   22  C   UNL     1      -8.996   5.840  70.418  1.00  0.00    -0.154 A  
HETATM   23  C   UNL     1     -11.099   4.849  73.431  1.00  0.00    -0.415 C  
ENDBRANCH   8  17
ENDBRANCH   6   7
ENDBRANCH   3   6
TORSDOF 3
ENDMDL
MODEL      150
REMARK 921   NORMALIZED FREE ENERGY PREDICTED BY IDOCK:   -2.98 KCAL/MOL
REMARK 922        TOTAL FREE ENERGY PREDICTED BY IDOCK:   -4.34 KCAL/MOL
REMARK 923 INTER-LIGAND FREE ENERGY PREDICTED BY IDOCK:   -3.40 KCAL/MOL
REMARK 924 INTRA-LIGAND FREE ENERGY PREDICTED BY IDOCK:   -0.94 KCAL/MOL
REMARK 927      BINDING AFFINITY PREDICTED BY RF-SCORE:    0.00 PKD
ROOT
HETATM    1  C   UNL     1     -11.396   9.619  70.000  1.00  0.00    -0.195 C  
HETATM    2  N   UNL     1     -10.036   9.281  69.618  1.00  0.00    -0.188 N  
HETATM    3  C   UNL     1      -9.709   9.456  68.270  1.00  0.00    -0.145 C  
HETATM    4  C   UNL     1      -9.032   9.229  70.666  1.00  0.00    -0.243 C  
HETATM    5  O   UNL     1     -10.557   9.811  67.450  1.00  0.00    -0.251 OA 
ENDROOT
BRANCH   3   6
HETATM    6  C   UNL     1      -8.262   9.160  67.875  1.00  0.00    -0.112 C  
BRANCH   6   7
HETATM    7  C   UNL     1      -8.144   7.851  67.164  1.00  0.00    -0.117 A  
HETATM    8  C   UNL     1      -8.343   6.536  67.575  1.00  0.00    -0.121 A  
HETATM    9  N   UNL     1      -7.966   5.658  66.579  1.00  0.00    -0.101 NA 
HETATM   10  N   UNL     1      -7.769   7.755  65.834  1.00  0.00    -0.090 NA 
HETATM   11  C   UNL     1      -7.633   6.402  65.551  1.00  0.00    -0.087 A  
HETATM   12  C   UNL     1      -7.529   8.758  64.889  1.00  0.00    -0.095 A  
HETATM   13  C   UNL     1      -6.882   9.451  62.584  1.00  0.00    -0.095 C  
HETATM   14  C   UNL     1      -7.181   6.050  64.249  1.00  0.00    -0.057 A  
HETATM   15  C   UNL     1      -7.127   8.427  63.646  1.00  0.00    -0.089 A  
HETATM   16  C   UNL     1      -6.934   7.011  63.335  1.00  0.00    -0.057 A  
BRANCH   8  17
HETATM   17  C   UNL     1      -8.800   6.079  68.882  1.00  0.00    -0.120 A  
HETATM   18  C   UNL     1      -8.306   5.598  71.220  1.00  0.00    -0.127 A  
HETATM   19  C   UNL     1      -9.653   5.315  71.471  1.00  0.00    -0.201 A  
HETATM   20  C   UNL     1     -10.557   5.351  70.408  1.00  0.00    -0.322 A  
HETATM   21  C   UNL     1     -10.128   5.713  69.127  1.00  0.00    -0.274 A  
HETATM   22  C   UNL     1      -7.886   5.979  69.939  1.00  0.00    -0.104 A  
HETATM   23  C   UNL     1     -10.109   4.961  72.856  1.00  0.00    -0.208 C  
ENDBRANCH   8  17
ENDBRANCH   6   7
ENDBRANCH   3   6
TORSDOF 3
ENDMDL
MODEL      151
REMARK 921   NORMALIZED FREE ENERGY PREDICTED BY IDOCK:   -2.92 KCAL/MOL
REMARK 922        TOTAL FREE ENERGY PREDICTED BY IDOCK:   -4.28 KCAL/MOL
REMARK 923 INTER-LIGAND FREE ENERGY PREDICTED BY IDOCK:   -4.98 KCAL/MOL
REMARK 924 INTRA-LIGAND FREE ENERGY PREDICTED BY IDOCK:    0.71 KCAL/MOL
REMARK 927      BINDING AFFINITY PREDICTED BY RF-SCORE:    0.00 PKD
ROOT
HETATM    1  C   UNL     1      -9.896   4.333  73.982  1.00  0.00    -0.131 C  
HETATM    2  N   UNL     1      -9.996   5.569  73.225  1.00  0.00    -0.167 N  
HETATM    3  C   UNL     1      -8.819   6.026  72.626  1.00  0.00    -0.124 C  
HETATM    4  C   UNL     1     -11.315   5.983  72.777  1.00  0.00    -0.242 C  
HETATM    5  O   UNL     1      -7.749   5.441  72.796  1.00  0.00    -0.096 OA 
ENDROOT
BRANCH   3   6
HETATM    6  C   UNL     1      -8.933   7.295  71.779  1.00  0.00    -0.136 C  
BRANCH   6   7
HETATM    7  C   UNL     1      -9.664   7.037  70.501  1.00  0.00    -0.176 A  
HETATM    8  C   UNL     1     -10.768   7.644  69.910  1.00  0.00    -0.249 A  
HETATM    9  N   UNL     1     -11.156   6.947  68.785  1.00  0.00    -0.149 NA 
HETATM   10  N   UNL     1      -9.301   6.029  69.624  1.00  0.00    -0.143 NA 
HETATM   11  C   UNL     1     -10.269   5.993  68.628  1.00  0.00    -0.188 A  
HETATM   12  C   UNL     1      -8.210   5.153  69.656  1.00  0.00    -0.093 A  
HETATM   13  C   UNL     1      -6.921   3.264  68.667  1.00  0.00    -0.049 C  
HETATM   14  C   UNL     1     -10.148   4.981  67.637  1.00  0.00    -0.192 A  
HETATM   15  C   UNL     1      -8.078   4.210  68.703  1.00  0.00    -0.074 A  
HETATM   16  C   UNL     1      -9.108   4.123  67.668  1.00  0.00    -0.164 A  
BRANCH   8  17
HETATM   17  C   UNL     1     -11.508   8.802  70.401  1.00  0.00    -0.163 A  
HETATM   18  C   UNL     1     -12.987   9.784  72.071  1.00  0.00    -0.515 A  
HETATM   19  C   UNL     1     -12.869  11.042  71.470  1.00  0.00    -0.555 A  
HETATM   20  C   UNL     1     -12.122  11.159  70.296  1.00  0.00    -0.462 A  
HETATM   21  C   UNL     1     -11.465  10.046  69.762  1.00  0.00    -0.240 A  
HETATM   22  C   UNL     1     -12.310   8.677  71.543  1.00  0.00    -0.370 A  
HETATM   23  C   UNL     1     -13.550  12.236  72.069  1.00  0.00    -0.306 C  
ENDBRANCH   8  17
ENDBRANCH   6   7
ENDBRANCH   3   6
TORSDOF 3
ENDMDL
MODEL      152
REMARK 921   NORMALIZED FREE ENERGY PREDICTED BY IDOCK:   -2.92 KCAL/MOL
REMARK 922        TOTAL FREE ENERGY PREDICTED BY IDOCK:   -4.27 KCAL/MOL
REMARK 923 INTER-LIGAND FREE ENERGY PREDICTED BY IDOCK:   -3.42 KCAL/MOL
REMARK 924 INTRA-LIGAND FREE ENERGY PREDICTED BY IDOCK:   -0.85 KCAL/MOL
REMARK 927      BINDING AFFINITY PREDICTED BY RF-SCORE:    0.00 PKD
ROOT
HETATM    1  C   UNL     1     -11.457   9.594  69.965  1.00  0.00    -0.145 C  
HETATM    2  N   UNL     1     -10.160   8.957  69.818  1.00  0.00    -0.193 N  
HETATM    3  C   UNL     1      -9.767   8.644  68.513  1.00  0.00    -0.163 C  
HETATM    4  C   UNL     1      -9.211   9.094  70.910  1.00  0.00    -0.261 C  
HETATM    5  O   UNL     1     -10.518   8.840  67.558  1.00  0.00    -0.257 OA 
ENDROOT
BRANCH   3   6
HETATM    6  C   UNL     1      -8.377   8.029  68.349  1.00  0.00    -0.127 C  
BRANCH   6   7
HETATM    7  C   UNL     1      -8.421   6.788  67.516  1.00  0.00    -0.121 A  
HETATM    8  C   UNL     1      -8.173   6.552  66.168  1.00  0.00    -0.123 A  
HETATM    9  N   UNL     1      -8.488   5.249  65.841  1.00  0.00    -0.120 NA 
HETATM   10  N   UNL     1      -8.763   5.551  68.037  1.00  0.00    -0.107 NA 
HETATM   11  C   UNL     1      -8.832   4.669  66.967  1.00  0.00    -0.111 A  
HETATM   12  C   UNL     1      -9.026   5.169  69.357  1.00  0.00    -0.099 A  
HETATM   13  C   UNL     1      -9.653   3.422  71.021  1.00  0.00    -0.239 C  
HETATM   14  C   UNL     1      -9.239   3.335  67.246  1.00  0.00    -0.221 A  
HETATM   15  C   UNL     1      -9.385   3.899  69.628  1.00  0.00    -0.246 A  
HETATM   16  C   UNL     1      -9.509   2.961  68.513  1.00  0.00    -0.200 A  
BRANCH   8  17
HETATM   17  C   UNL     1      -7.724   7.517  65.170  1.00  0.00    -0.111 A  
HETATM   18  C   UNL     1      -8.223   9.410  63.719  1.00  0.00    -0.165 A  
HETATM   19  C   UNL     1      -6.884   9.490  63.321  1.00  0.00    -0.104 A  
HETATM   20  C   UNL     1      -5.983   8.537  63.801  1.00  0.00    -0.072 A  
HETATM   21  C   UNL     1      -6.406   7.553  64.701  1.00  0.00    -0.041 A  
HETATM   22  C   UNL     1      -8.637   8.435  64.636  1.00  0.00    -0.046 A  
HETATM   23  C   UNL     1      -6.433  10.569  62.382  1.00  0.00    -0.153 C  
ENDBRANCH   8  17
ENDBRANCH   6   7
ENDBRANCH   3   6
TORSDOF 3
ENDMDL
MODEL      153
REMARK 921   NORMALIZED FREE ENERGY PREDICTED BY IDOCK:   -2.86 KCAL/MOL
REMARK 922        TOTAL FREE ENERGY PREDICTED BY IDOCK:   -4.20 KCAL/MOL
REMARK 923 INTER-LIGAND FREE ENERGY PREDICTED BY IDOCK:   -4.32 KCAL/MOL
REMARK 924 INTRA-LIGAND FREE ENERGY PREDICTED BY IDOCK:    0.12 KCAL/MOL
REMARK 927      BINDING AFFINITY PREDICTED BY RF-SCORE:    0.00 PKD
ROOT
HETATM    1  C   UNL     1      -5.610   7.718  73.023  1.00  0.00    -0.044 C  
HETATM    2  N   UNL     1      -6.716   7.975  72.118  1.00  0.00    -0.063 N  
HETATM    3  C   UNL     1      -6.585   7.472  70.820  1.00  0.00    -0.043 C  
HETATM    4  C   UNL     1      -8.004   8.311  72.701  1.00  0.00    -0.137 C  
HETATM    5  O   UNL     1      -5.554   6.905  70.458  1.00  0.00    -0.023 OA 
ENDROOT
BRANCH   3   6
HETATM    6  C   UNL     1      -7.774   7.688  69.882  1.00  0.00    -0.097 C  
BRANCH   6   7
HETATM    7  C   UNL     1      -8.801   6.614  70.042  1.00  0.00    -0.141 A  
HETATM    8  C   UNL     1     -10.121   6.634  70.483  1.00  0.00    -0.187 A  
HETATM    9  N   UNL     1     -10.613   5.349  70.585  1.00  0.00    -0.256 NA 
HETATM   10  N   UNL     1      -8.547   5.287  69.741  1.00  0.00    -0.097 NA 
HETATM   11  C   UNL     1      -9.664   4.563  70.134  1.00  0.00    -0.217 A  
HETATM   12  C   UNL     1      -7.415   4.691  69.172  1.00  0.00    -0.056 A  
HETATM   13  C   UNL     1      -6.204   2.662  68.381  1.00  0.00    -0.028 C  
HETATM   14  C   UNL     1      -9.612   3.149  69.988  1.00  0.00    -0.162 A  
HETATM   15  C   UNL     1      -7.373   3.354  69.007  1.00  0.00    -0.049 A  
HETATM   16  C   UNL     1      -8.519   2.565  69.454  1.00  0.00    -0.100 A  
BRANCH   8  17
HETATM   17  C   UNL     1     -10.903   7.800  70.878  1.00  0.00    -0.246 A  
HETATM   18  C   UNL     1     -11.603  10.094  70.443  1.00  0.00    -0.396 A  
HETATM   19  C   UNL     1     -12.490  10.054  71.524  1.00  0.00    -0.516 A  
HETATM   20  C   UNL     1     -12.530   8.906  72.319  1.00  0.00    -0.440 A  
HETATM   21  C   UNL     1     -11.732   7.801  72.006  1.00  0.00    -0.349 A  
HETATM   22  C   UNL     1     -10.820   8.977  70.122  1.00  0.00    -0.261 A  
HETATM   23  C   UNL     1     -13.366  11.231  71.831  1.00  0.00    -0.413 C  
ENDBRANCH   8  17
ENDBRANCH   6   7
ENDBRANCH   3   6
TORSDOF 3
ENDMDL
MODEL      154
REMARK 921   NORMALIZED FREE ENERGY PREDICTED BY IDOCK:   -2.81 KCAL/MOL
REMARK 922        TOTAL FREE ENERGY PREDICTED BY IDOCK:   -4.15 KCAL/MOL
REMARK 923 INTER-LIGAND FREE ENERGY PREDICTED BY IDOCK:   -3.12 KCAL/MOL
REMARK 924 INTRA-LIGAND FREE ENERGY PREDICTED BY IDOCK:   -1.02 KCAL/MOL
REMARK 927      BINDING AFFINITY PREDICTED BY RF-SCORE:    0.00 PKD
ROOT
HETATM    1  C   UNL     1     -10.000   6.047  71.414  1.00  0.00    -0.186 C  
HETATM    2  N   UNL     1     -10.249   6.690  70.136  1.00  0.00    -0.184 N  
HETATM    3  C   UNL     1     -10.385   5.842  69.032  1.00  0.00    -0.233 C  
HETATM    4  C   UNL     1     -10.770   8.046  70.150  1.00  0.00    -0.244 C  
HETATM    5  O   UNL     1     -10.230   4.626  69.140  1.00  0.00    -0.143 OA 
ENDROOT
BRANCH   3   6
HETATM    6  C   UNL     1     -10.708   6.511  67.695  1.00  0.00    -0.381 C  
BRANCH   6   7
HETATM    7  C   UNL     1      -9.547   6.449  66.756  1.00  0.00    -0.155 A  
HETATM    8  C   UNL     1      -8.369   7.184  66.668  1.00  0.00    -0.114 A  
HETATM    9  N   UNL     1      -7.670   6.839  65.529  1.00  0.00    -0.095 NA 
HETATM   10  N   UNL     1      -9.479   5.541  65.712  1.00  0.00    -0.105 NA 
HETATM   11  C   UNL     1      -8.344   5.857  64.977  1.00  0.00    -0.131 A  
HETATM   12  C   UNL     1     -10.341   4.494  65.369  1.00  0.00    -0.199 A  
HETATM   13  C   UNL     1     -10.961   2.606  63.865  1.00  0.00     0.143 C  
HETATM   14  C   UNL     1      -8.096   5.098  63.800  1.00  0.00    -0.115 A  
HETATM   15  C   UNL     1     -10.094   3.755  64.269  1.00  0.00    -0.221 A  
HETATM   16  C   UNL     1      -8.929   4.096  63.453  1.00  0.00    -0.127 A  
BRANCH   8  17
HETATM   17  C   UNL     1      -7.917   8.240  67.566  1.00  0.00    -0.110 A  
HETATM   18  C   UNL     1      -6.668   8.905  69.551  1.00  0.00    -0.047 A  
HETATM   19  C   UNL     1      -6.911  10.257  69.280  1.00  0.00    -0.068 A  
HETATM   20  C   UNL     1      -7.713  10.590  68.187  1.00  0.00    -0.096 A  
HETATM   21  C   UNL     1      -8.223   9.589  67.353  1.00  0.00    -0.114 A  
HETATM   22  C   UNL     1      -7.165   7.909  68.701  1.00  0.00    -0.081 A  
HETATM   23  C   UNL     1      -6.331  11.323  70.161  1.00  0.00    -0.120 C  
ENDBRANCH   8  17
ENDBRANCH   6   7
ENDBRANCH   3   6
TORSDOF 3
ENDMDL
MODEL      155
REMARK 921   NORMALIZED FREE ENERGY PREDICTED BY IDOCK:   -2.75 KCAL/MOL
REMARK 922        TOTAL FREE ENERGY PREDICTED BY IDOCK:   -4.07 KCAL/MOL
REMARK 923 INTER-LIGAND FREE ENERGY PREDICTED BY IDOCK:   -3.38 KCAL/MOL
REMARK 924 INTRA-LIGAND FREE ENERGY PREDICTED BY IDOCK:   -0.69 KCAL/MOL
REMARK 927      BINDING AFFINITY PREDICTED BY RF-SCORE:    0.00 PKD
ROOT
HETATM    1  C   UNL     1      -5.126   5.733  66.629  1.00  0.00    -0.005 C  
HETATM    2  N   UNL     1      -5.785   6.512  67.663  1.00  0.00    -0.011 N  
HETATM    3  C   UNL     1      -6.608   5.803  68.543  1.00  0.00    -0.052 C  
HETATM    4  C   UNL     1      -5.226   7.813  67.989  1.00  0.00    -0.031 C  
HETATM    5  O   UNL     1      -6.811   4.598  68.395  1.00  0.00    -0.049 OA 
ENDROOT
BRANCH   3   6
HETATM    6  C   UNL     1      -7.256   6.610  69.669  1.00  0.00    -0.078 C  
BRANCH   6   7
HETATM    7  C   UNL     1      -8.724   6.780  69.449  1.00  0.00    -0.136 A  
HETATM    8  C   UNL     1      -9.467   7.213  68.355  1.00  0.00    -0.138 A  
HETATM    9  N   UNL     1     -10.799   7.331  68.694  1.00  0.00    -0.127 NA 
HETATM   10  N   UNL     1      -9.663   6.500  70.428  1.00  0.00    -0.171 NA 
HETATM   11  C   UNL     1     -10.896   6.898  69.929  1.00  0.00    -0.257 A  
HETATM   12  C   UNL     1      -9.500   5.947  71.703  1.00  0.00    -0.149 A  
HETATM   13  C   UNL     1     -10.463   5.193  73.875  1.00  0.00    -0.316 C  
HETATM   14  C   UNL     1     -12.021   6.772  70.791  1.00  0.00    -0.433 A  
HETATM   15  C   UNL     1     -10.568   5.802  72.513  1.00  0.00    -0.262 A  
HETATM   16  C   UNL     1     -11.871   6.254  72.027  1.00  0.00    -0.370 A  
BRANCH   8  17
HETATM   17  C   UNL     1      -8.964   7.586  67.038  1.00  0.00    -0.143 A  
HETATM   18  C   UNL     1      -8.396   6.941  64.757  1.00  0.00     0.014 A  
HETATM   19  C   UNL     1      -8.109   8.271  64.427  1.00  0.00    -0.145 A  
HETATM   20  C   UNL     1      -8.188   9.243  65.426  1.00  0.00    -0.129 A  
HETATM   21  C   UNL     1      -8.594   8.897  66.719  1.00  0.00    -0.122 A  
HETATM   22  C   UNL     1      -8.822   6.604  66.048  1.00  0.00    -0.151 A  
HETATM   23  C   UNL     1      -7.707   8.636  63.030  1.00  0.00    -0.126 C  
ENDBRANCH   8  17
ENDBRANCH   6   7
ENDBRANCH   3   6
TORSDOF 3
ENDMDL
MODEL      156
REMARK 921   NORMALIZED FREE ENERGY PREDICTED BY IDOCK:   -2.62 KCAL/MOL
REMARK 922        TOTAL FREE ENERGY PREDICTED BY IDOCK:   -3.92 KCAL/MOL
REMARK 923 INTER-LIGAND FREE ENERGY PREDICTED BY IDOCK:   -3.11 KCAL/MOL
REMARK 924 INTRA-LIGAND FREE ENERGY PREDICTED BY IDOCK:   -0.82 KCAL/MOL
REMARK 927      BINDING AFFINITY PREDICTED BY RF-SCORE:    0.00 PKD
ROOT
HETATM    1  C   UNL     1     -11.374  11.240  66.960  1.00  0.00    -0.187 C  
HETATM    2  N   UNL     1     -10.980  10.270  67.967  1.00  0.00    -0.283 N  
HETATM    3  C   UNL     1     -10.356   9.110  67.499  1.00  0.00    -0.261 C  
HETATM    4  C   UNL     1     -10.842  10.735  69.337  1.00  0.00    -0.244 C  
HETATM    5  O   UNL     1     -10.219   8.902  66.294  1.00  0.00    -0.284 OA 
ENDROOT
BRANCH   3   6
HETATM    6  C   UNL     1      -9.885   8.114  68.561  1.00  0.00    -0.190 C  
BRANCH   6   7
HETATM    7  C   UNL     1      -8.526   7.579  68.246  1.00  0.00    -0.125 A  
HETATM    8  C   UNL     1      -7.293   8.196  68.058  1.00  0.00    -0.096 A  
HETATM    9  N   UNL     1      -6.352   7.276  67.643  1.00  0.00    -0.046 NA 
HETATM   10  N   UNL     1      -8.278   6.228  68.070  1.00  0.00    -0.114 NA 
HETATM   11  C   UNL     1      -6.956   6.111  67.661  1.00  0.00    -0.069 A  
HETATM   12  C   UNL     1      -9.126   5.126  68.227  1.00  0.00    -0.112 A  
HETATM   13  C   UNL     1      -9.521   2.667  68.132  1.00  0.00    -0.217 C  
HETATM   14  C   UNL     1      -6.482   4.807  67.347  1.00  0.00    -0.045 A  
HETATM   15  C   UNL     1      -8.672   3.886  67.957  1.00  0.00    -0.122 A  
HETATM   16  C   UNL     1      -7.297   3.741  67.482  1.00  0.00    -0.067 A  
BRANCH   8  17
HETATM   17  C   UNL     1      -6.988   9.617  68.184  1.00  0.00    -0.077 A  
HETATM   18  C   UNL     1      -6.593  11.773  67.118  1.00  0.00    -0.143 A  
HETATM   19  C   UNL     1      -6.516  12.403  68.366  1.00  0.00    -0.058 A  
HETATM   20  C   UNL     1      -6.610  11.622  69.519  1.00  0.00    -0.111 A  
HETATM   21  C   UNL     1      -6.826  10.243  69.425  1.00  0.00    -0.076 A  
HETATM   22  C   UNL     1      -6.829  10.395  67.030  1.00  0.00    -0.085 A  
HETATM   23  C   UNL     1      -6.319  13.886  68.456  1.00  0.00    -0.093 C  
ENDBRANCH   8  17
ENDBRANCH   6   7
ENDBRANCH   3   6
TORSDOF 3
ENDMDL
MODEL      157
REMARK 921   NORMALIZED FREE ENERGY PREDICTED BY IDOCK:   -2.49 KCAL/MOL
REMARK 922        TOTAL FREE ENERGY PREDICTED BY IDOCK:   -3.77 KCAL/MOL
REMARK 923 INTER-LIGAND FREE ENERGY PREDICTED BY IDOCK:   -3.04 KCAL/MOL
REMARK 924 INTRA-LIGAND FREE ENERGY PREDICTED BY IDOCK:   -0.73 KCAL/MOL
REMARK 927      BINDING AFFINITY PREDICTED BY RF-SCORE:    0.00 PKD
ROOT
HETATM    1  C   UNL     1      -7.299   4.414  70.011  1.00  0.00    -0.046 C  
HETATM    2  N   UNL     1      -8.333   4.846  69.086  1.00  0.00    -0.081 N  
HETATM    3  C   UNL     1      -8.056   5.995  68.340  1.00  0.00    -0.107 C  
HETATM    4  C   UNL     1      -9.328   3.868  68.678  1.00  0.00    -0.164 C  
HETATM    5  O   UNL     1      -7.020   6.635  68.517  1.00  0.00    -0.074 OA 
ENDROOT
BRANCH   3   6
HETATM    6  C   UNL     1      -9.116   6.419  67.322  1.00  0.00    -0.117 C  
BRANCH   6   7
HETATM    7  C   UNL     1      -8.509   6.716  65.989  1.00  0.00    -0.142 A  
HETATM    8  C   UNL     1      -8.294   7.904  65.298  1.00  0.00    -0.133 A  
HETATM    9  N   UNL     1      -7.825   7.643  64.026  1.00  0.00    -0.132 NA 
HETATM   10  N   UNL     1      -8.022   5.725  65.153  1.00  0.00    -0.112 NA 
HETATM   11  C   UNL     1      -7.665   6.342  63.962  1.00  0.00    -0.104 A  
HETATM   12  C   UNL     1      -7.894   4.347  65.365  1.00  0.00    -0.090 A  
HETATM   13  C   UNL     1      -7.239   2.084  64.553  1.00  0.00    -0.056 C  
HETATM   14  C   UNL     1      -7.197   5.508  62.909  1.00  0.00    -0.043 A  
HETATM   15  C   UNL     1      -7.425   3.558  64.379  1.00  0.00    -0.075 A  
HETATM   16  C   UNL     1      -7.083   4.178  63.099  1.00  0.00    -0.044 A  
BRANCH   8  17
HETATM   17  C   UNL     1      -8.580   9.258  65.758  1.00  0.00    -0.169 A  
HETATM   18  C   UNL     1      -7.892  11.228  67.016  1.00  0.00    -0.150 A  
HETATM   19  C   UNL     1      -9.023  11.929  66.584  1.00  0.00    -0.198 A  
HETATM   20  C   UNL     1      -9.963  11.266  65.793  1.00  0.00    -0.281 A  
HETATM   21  C   UNL     1      -9.748   9.941  65.401  1.00  0.00    -0.375 A  
HETATM   22  C   UNL     1      -7.673   9.907  66.604  1.00  0.00    -0.106 A  
HETATM   23  C   UNL     1      -9.227  13.361  66.982  1.00  0.00    -0.242 C  
ENDBRANCH   8  17
ENDBRANCH   6   7
ENDBRANCH   3   6
TORSDOF 3
ENDMDL
MODEL      158
REMARK 921   NORMALIZED FREE ENERGY PREDICTED BY IDOCK:   -2.47 KCAL/MOL
REMARK 922        TOTAL FREE ENERGY PREDICTED BY IDOCK:   -3.75 KCAL/MOL
REMARK 923 INTER-LIGAND FREE ENERGY PREDICTED BY IDOCK:   -4.62 KCAL/MOL
REMARK 924 INTRA-LIGAND FREE ENERGY PREDICTED BY IDOCK:    0.88 KCAL/MOL
REMARK 927      BINDING AFFINITY PREDICTED BY RF-SCORE:    0.00 PKD
ROOT
HETATM    1  C   UNL     1      -5.546  18.907  67.465  1.00  0.00    -0.165 C  
HETATM    2  N   UNL     1      -5.995  17.599  67.909  1.00  0.00    -0.150 N  
HETATM    3  C   UNL     1      -7.151  17.573  68.693  1.00  0.00    -0.243 C  
HETATM    4  C   UNL     1      -5.518  16.436  67.178  1.00  0.00    -0.065 C  
HETATM    5  O   UNL     1      -7.709  18.615  69.040  1.00  0.00    -0.271 OA 
ENDROOT
BRANCH   3   6
HETATM    6  C   UNL     1      -7.661  16.193  69.112  1.00  0.00    -0.230 C  
BRANCH   6   7
HETATM    7  C   UNL     1      -8.485  15.563  68.037  1.00  0.00    -0.143 A  
HETATM    8  C   UNL     1      -8.651  14.242  67.631  1.00  0.00    -0.183 A  
HETATM    9  N   UNL     1      -9.419  14.183  66.486  1.00  0.00    -0.287 NA 
HETATM   10  N   UNL     1      -9.294  16.300  67.188  1.00  0.00    -0.219 NA 
HETATM   11  C   UNL     1      -9.796  15.416  66.242  1.00  0.00    -0.297 A  
HETATM   12  C   UNL     1      -9.594  17.667  67.187  1.00  0.00    -0.278 A  
HETATM   13  C   UNL     1     -10.764  19.626  66.185  1.00  0.00    -0.520 C  
HETATM   14  C   UNL     1     -10.609  15.959  65.208  1.00  0.00    -0.441 A  
HETATM   15  C   UNL     1     -10.385  18.180  66.225  1.00  0.00    -0.407 A  
HETATM   16  C   UNL     1     -10.891  17.278  65.191  1.00  0.00     0.051 A  
BRANCH   8  17
HETATM   17  C   UNL     1      -8.058  13.053  68.231  1.00  0.00    -0.151 A  
HETATM   18  C   UNL     1      -8.277  10.721  68.907  1.00  0.00    -0.149 A  
HETATM   19  C   UNL     1      -6.928  10.677  69.277  1.00  0.00    -0.096 A  
HETATM   20  C   UNL     1      -6.167  11.844  69.184  1.00  0.00    -0.085 A  
HETATM   21  C   UNL     1      -6.734  13.020  68.682  1.00  0.00    -0.096 A  
HETATM   22  C   UNL     1      -8.834  11.897  68.387  1.00  0.00    -0.159 A  
HETATM   23  C   UNL     1      -6.321   9.402  69.782  1.00  0.00    -0.040 C  
ENDBRANCH   8  17
ENDBRANCH   6   7
ENDBRANCH   3   6
TORSDOF 3
ENDMDL
MODEL      159
REMARK 921   NORMALIZED FREE ENERGY PREDICTED BY IDOCK:   -2.40 KCAL/MOL
REMARK 922        TOTAL FREE ENERGY PREDICTED BY IDOCK:   -3.67 KCAL/MOL
REMARK 923 INTER-LIGAND FREE ENERGY PREDICTED BY IDOCK:   -3.16 KCAL/MOL
REMARK 924 INTRA-LIGAND FREE ENERGY PREDICTED BY IDOCK:   -0.50 KCAL/MOL
REMARK 927      BINDING AFFINITY PREDICTED BY RF-SCORE:    0.00 PKD
ROOT
HETATM    1  C   UNL     1      -8.451   4.942  66.801  1.00  0.00    -0.106 C  
HETATM    2  N   UNL     1      -9.269   6.077  67.191  1.00  0.00    -0.116 N  
HETATM    3  C   UNL     1      -9.224   6.439  68.540  1.00  0.00    -0.124 C  
HETATM    4  C   UNL     1      -9.695   6.994  66.147  1.00  0.00     0.115 C  
HETATM    5  O   UNL     1      -8.576   5.781  69.355  1.00  0.00    -0.110 OA 
ENDROOT
BRANCH   3   6
HETATM    6  C   UNL     1     -10.037   7.671  68.943  1.00  0.00    -0.202 C  
BRANCH   6   7
HETATM    7  C   UNL     1      -9.164   8.871  69.119  1.00  0.00    -0.144 A  
HETATM    8  C   UNL     1      -8.225   9.217  70.086  1.00  0.00    -0.167 A  
HETATM    9  N   UNL     1      -7.782  10.508  69.886  1.00  0.00    -0.089 NA 
HETATM   10  N   UNL     1      -9.176   9.938  68.237  1.00  0.00    -0.129 NA 
HETATM   11  C   UNL     1      -8.354  10.918  68.779  1.00  0.00    -0.151 A  
HETATM   12  C   UNL     1      -9.860  10.103  67.027  1.00  0.00    -0.191 A  
HETATM   13  C   UNL     1     -10.436  11.487  65.037  1.00  0.00    -0.344 C  
HETATM   14  C   UNL     1      -8.261  12.152  68.078  1.00  0.00    -0.158 A  
HETATM   15  C   UNL     1      -9.752  11.261  66.347  1.00  0.00    -0.238 A  
HETATM   16  C   UNL     1      -8.928  12.325  66.919  1.00  0.00    -0.207 A  
BRANCH   8  17
HETATM   17  C   UNL     1      -7.790   8.413  71.222  1.00  0.00    -0.128 A  
HETATM   18  C   UNL     1      -8.260   7.470  73.420  1.00  0.00    -0.169 A  
HETATM   19  C   UNL     1      -7.050   6.767  73.404  1.00  0.00    -0.075 A  
HETATM   20  C   UNL     1      -6.184   6.944  72.323  1.00  0.00    -0.045 A  
HETATM   21  C   UNL     1      -6.546   7.772  71.255  1.00  0.00    -0.041 A  
HETATM   22  C   UNL     1      -8.626   8.281  72.339  1.00  0.00    -0.270 A  
HETATM   23  C   UNL     1      -6.686   5.856  74.538  1.00  0.00    -0.076 C  
ENDBRANCH   8  17
ENDBRANCH   6   7
ENDBRANCH   3   6
TORSDOF 3
ENDMDL
MODEL      160
REMARK 921   NORMALIZED FREE ENERGY PREDICTED BY IDOCK:   -2.34 KCAL/MOL
REMARK 922        TOTAL FREE ENERGY PREDICTED BY IDOCK:   -3.59 KCAL/MOL
REMARK 923 INTER-LIGAND FREE ENERGY PREDICTED BY IDOCK:   -3.08 KCAL/MOL
REMARK 924 INTRA-LIGAND FREE ENERGY PREDICTED BY IDOCK:   -0.52 KCAL/MOL
REMARK 927      BINDING AFFINITY PREDICTED BY RF-SCORE:    0.00 PKD
ROOT
HETATM    1  C   UNL     1     -10.412   6.298  66.932  1.00  0.00    -0.272 C  
HETATM    2  N   UNL     1     -10.088   7.368  67.858  1.00  0.00    -0.169 N  
HETATM    3  C   UNL     1     -10.576   8.638  67.535  1.00  0.00    -0.222 C  
HETATM    4  C   UNL     1      -9.702   6.999  69.210  1.00  0.00    -0.158 C  
HETATM    5  O   UNL     1     -11.185   8.837  66.484  1.00  0.00     0.716 OA 
ENDROOT
BRANCH   3   6
HETATM    6  C   UNL     1     -10.288   9.755  68.539  1.00  0.00    -0.228 C  
BRANCH   6   7
HETATM    7  C   UNL     1      -9.678  10.946  67.875  1.00  0.00    -0.165 A  
HETATM    8  C   UNL     1      -8.650  11.081  66.946  1.00  0.00    -0.143 A  
HETATM    9  N   UNL     1      -8.356  12.414  66.744  1.00  0.00    -0.115 NA 
HETATM   10  N   UNL     1     -10.100  12.240  68.128  1.00  0.00    -0.206 NA 
HETATM   11  C   UNL     1      -9.232  13.087  67.452  1.00  0.00    -0.208 A  
HETATM   12  C   UNL     1     -11.163  12.707  68.910  1.00  0.00    -0.280 A  
HETATM   13  C   UNL     1     -12.497  14.592  69.847  1.00  0.00    -0.300 C  
HETATM   14  C   UNL     1      -9.424  14.487  67.617  1.00  0.00    -0.209 A  
HETATM   15  C   UNL     1     -11.364  14.032  69.048  1.00  0.00    -0.319 A  
HETATM   16  C   UNL     1     -10.437  14.945  68.381  1.00  0.00    -0.243 A  
BRANCH   8  17
HETATM   17  C   UNL     1      -7.894  10.012  66.304  1.00  0.00    -0.111 A  
HETATM   18  C   UNL     1      -6.054   8.415  66.379  1.00  0.00    -0.052 A  
HETATM   19  C   UNL     1      -6.459   7.855  65.163  1.00  0.00    -0.044 A  
HETATM   20  C   UNL     1      -7.543   8.421  64.490  1.00  0.00    -0.106 A  
HETATM   21  C   UNL     1      -8.239   9.498  65.049  1.00  0.00    -0.137 A  
HETATM   22  C   UNL     1      -6.766   9.481  66.944  1.00  0.00    -0.072 A  
HETATM   23  C   UNL     1      -5.727   6.678  64.588  1.00  0.00    -0.031 C  
ENDBRANCH   8  17
ENDBRANCH   6   7
ENDBRANCH   3   6
TORSDOF 3
ENDMDL
MODEL      161
REMARK 921   NORMALIZED FREE ENERGY PREDICTED BY IDOCK:   -2.16 KCAL/MOL
REMARK 922        TOTAL FREE ENERGY PREDICTED BY IDOCK:   -3.38 KCAL/MOL
REMARK 923 INTER-LIGAND FREE ENERGY PREDICTED BY IDOCK:   -3.14 KCAL/MOL
REMARK 924 INTRA-LIGAND FREE ENERGY PREDICTED BY IDOCK:   -0.23 KCAL/MOL
REMARK 927      BINDING AFFINITY PREDICTED BY RF-SCORE:    0.00 PKD
ROOT
HETATM    1  C   UNL     1      -9.590   7.881  70.348  1.00  0.00    -0.171 C  
HETATM    2  N   UNL     1      -8.818   8.700  69.431  1.00  0.00    -0.142 N  
HETATM    3  C   UNL     1      -9.549   9.527  68.573  1.00  0.00    -0.142 C  
HETATM    4  C   UNL     1      -7.422   8.944  69.753  1.00  0.00    -0.057 C  
HETATM    5  O   UNL     1     -10.779   9.501  68.558  1.00  0.00    -0.218 OA 
ENDROOT
BRANCH   3   6
HETATM    6  C   UNL     1      -8.738  10.436  67.648  1.00  0.00    -0.118 C  
BRANCH   6   7
HETATM    7  C   UNL     1      -8.737   9.928  66.242  1.00  0.00    -0.139 A  
HETATM    8  C   UNL     1      -9.438  10.311  65.103  1.00  0.00    -0.252 A  
HETATM    9  N   UNL     1      -9.193   9.433  64.068  1.00  0.00    -0.075 NA 
HETATM   10  N   UNL     1      -7.944   8.869  65.832  1.00  0.00    -0.104 NA 
HETATM   11  C   UNL     1      -8.298   8.586  64.519  1.00  0.00    -0.128 A  
HETATM   12  C   UNL     1      -6.968   8.149  66.529  1.00  0.00    -0.068 A  
HETATM   13  C   UNL     1      -5.271   6.325  66.615  1.00  0.00    -0.012 C  
HETATM   14  C   UNL     1      -7.660   7.478  63.895  1.00  0.00    -0.114 A  
HETATM   15  C   UNL     1      -6.342   7.116  65.932  1.00  0.00    -0.044 A  
HETATM   16  C   UNL     1      -6.728   6.769  64.565  1.00  0.00    -0.042 A  
BRANCH   8  17
HETATM   17  C   UNL     1     -10.377  11.420  64.976  1.00  0.00    -0.342 A  
HETATM   18  C   UNL     1     -12.009  12.635  63.633  1.00  0.00    -0.615 A  
HETATM   19  C   UNL     1     -12.301  13.480  64.710  1.00  0.00    -0.435 A  
HETATM   20  C   UNL     1     -11.579  13.332  65.896  1.00  0.00    -0.380 A  
HETATM   21  C   UNL     1     -10.618  12.324  66.017  1.00  0.00    -0.287 A  
HETATM   22  C   UNL     1     -11.059  11.614  63.767  1.00  0.00    -0.499 A  
HETATM   23  C   UNL     1     -13.358  14.536  64.580  1.00  0.00     1.242 C  
ENDBRANCH   8  17
ENDBRANCH   6   7
ENDBRANCH   3   6
TORSDOF 3
ENDMDL
MODEL      162
REMARK 921   NORMALIZED FREE ENERGY PREDICTED BY IDOCK:   -2.09 KCAL/MOL
REMARK 922        TOTAL FREE ENERGY PREDICTED BY IDOCK:   -3.30 KCAL/MOL
REMARK 923 INTER-LIGAND FREE ENERGY PREDICTED BY IDOCK:   -3.40 KCAL/MOL
REMARK 924 INTRA-LIGAND FREE ENERGY PREDICTED BY IDOCK:    0.10 KCAL/MOL
REMARK 927      BINDING AFFINITY PREDICTED BY RF-SCORE:    0.00 PKD
ROOT
HETATM    1  C   UNL     1     -10.852  11.414  66.426  1.00  0.00    -0.271 C  
HETATM    2  N   UNL     1     -10.807  10.112  67.068  1.00  0.00    -0.199 N  
HETATM    3  C   UNL     1     -10.149   9.097  66.366  1.00  0.00    -0.274 C  
HETATM    4  C   UNL     1     -11.022  10.058  68.504  1.00  0.00    -0.209 C  
HETATM    5  O   UNL     1      -9.700   9.292  65.237  1.00  0.00    -0.216 OA 
ENDROOT
BRANCH   3   6
HETATM    6  C   UNL     1     -10.047   7.741  67.066  1.00  0.00    -0.343 C  
BRANCH   6   7
HETATM    7  C   UNL     1      -8.625   7.301  67.204  1.00  0.00    -0.121 A  
HETATM    8  C   UNL     1      -7.816   7.069  68.312  1.00  0.00    -0.118 A  
HETATM    9  N   UNL     1      -6.519   6.811  67.916  1.00  0.00    -0.047 NA 
HETATM   10  N   UNL     1      -7.816   7.037  66.111  1.00  0.00    -0.098 NA 
HETATM   11  C   UNL     1      -6.541   6.792  66.604  1.00  0.00    -0.044 A  
HETATM   12  C   UNL     1      -8.121   7.017  64.746  1.00  0.00    -0.096 A  
HETATM   13  C   UNL     1      -7.417   6.709  62.375  1.00  0.00    -0.071 C  
HETATM   14  C   UNL     1      -5.507   6.561  65.655  1.00  0.00    -0.021 A  
HETATM   15  C   UNL     1      -7.149   6.771  63.845  1.00  0.00    -0.059 A  
HETATM   16  C   UNL     1      -5.789   6.553  64.335  1.00  0.00    -0.030 A  
BRANCH   8  17
HETATM   17  C   UNL     1      -8.197   7.152  69.717  1.00  0.00    -0.131 A  
HETATM   18  C   UNL     1      -8.169   8.380  71.823  1.00  0.00    -0.200 A  
HETATM   19  C   UNL     1      -9.007   7.429  72.416  1.00  0.00    -0.161 A  
HETATM   20  C   UNL     1      -9.382   6.307  71.673  1.00  0.00    -0.153 A  
HETATM   21  C   UNL     1      -8.966   6.166  70.346  1.00  0.00    -0.151 A  
HETATM   22  C   UNL     1      -7.772   8.243  70.486  1.00  0.00    -0.081 A  
HETATM   23  C   UNL     1      -9.476   7.607  73.829  1.00  0.00    -0.300 C  
ENDBRANCH   8  17
ENDBRANCH   6   7
ENDBRANCH   3   6
TORSDOF 3
ENDMDL
MODEL      163
REMARK 921   NORMALIZED FREE ENERGY PREDICTED BY IDOCK:   -2.04 KCAL/MOL
REMARK 922        TOTAL FREE ENERGY PREDICTED BY IDOCK:   -3.24 KCAL/MOL
REMARK 923 INTER-LIGAND FREE ENERGY PREDICTED BY IDOCK:   -3.73 KCAL/MOL
REMARK 924 INTRA-LIGAND FREE ENERGY PREDICTED BY IDOCK:    0.49 KCAL/MOL
REMARK 927      BINDING AFFINITY PREDICTED BY RF-SCORE:    0.00 PKD
ROOT
HETATM    1  C   UNL     1     -11.256  11.314  66.968  1.00  0.00    -0.255 C  
HETATM    2  N   UNL     1     -10.901  10.139  67.745  1.00  0.00    -0.279 N  
HETATM    3  C   UNL     1     -10.135   9.170  67.090  1.00  0.00    -0.236 C  
HETATM    4  C   UNL     1     -10.960  10.243  69.193  1.00  0.00    -0.238 C  
HETATM    5  O   UNL     1      -9.844   9.286  65.899  1.00  0.00    -0.281 OA 
ENDROOT
BRANCH   3   6
HETATM    6  C   UNL     1      -9.708   7.961  67.923  1.00  0.00    -0.184 C  
BRANCH   6   7
HETATM    7  C   UNL     1      -8.610   8.310  68.875  1.00  0.00    -0.132 A  
HETATM    8  C   UNL     1      -8.370   7.964  70.202  1.00  0.00    -0.127 A  
HETATM    9  N   UNL     1      -7.286   8.662  70.693  1.00  0.00    -0.052 NA 
HETATM   10  N   UNL     1      -7.553   9.134  68.526  1.00  0.00    -0.085 NA 
HETATM   11  C   UNL     1      -6.811   9.348  69.680  1.00  0.00    -0.056 A  
HETATM   12  C   UNL     1      -7.224   9.706  67.292  1.00  0.00    -0.087 A  
HETATM   13  C   UNL     1      -5.735  11.139  65.899  1.00  0.00    -0.059 C  
HETATM   14  C   UNL     1      -5.699  10.230  69.587  1.00  0.00    -0.039 A  
HETATM   15  C   UNL     1      -6.155  10.520  67.194  1.00  0.00    -0.055 A  
HETATM   16  C   UNL     1      -5.382  10.797  68.404  1.00  0.00    -0.040 A  
BRANCH   8  17
HETATM   17  C   UNL     1      -9.160   7.066  71.037  1.00  0.00    -0.151 A  
HETATM   18  C   UNL     1      -9.409   4.897  72.121  1.00  0.00    -0.167 A  
HETATM   19  C   UNL     1     -10.587   5.320  72.748  1.00  0.00    -0.276 A  
HETATM   20  C   UNL     1     -11.081   6.594  72.462  1.00  0.00    -0.296 A  
HETATM   21  C   UNL     1     -10.381   7.447  71.603  1.00  0.00    -0.215 A  
HETATM   22  C   UNL     1      -8.703   5.764  71.277  1.00  0.00    -0.132 A  
HETATM   23  C   UNL     1     -11.311   4.409  73.694  1.00  0.00    -0.287 C  
ENDBRANCH   8  17
ENDBRANCH   6   7
ENDBRANCH   3   6
TORSDOF 3
ENDMDL
MODEL      164
REMARK 921   NORMALIZED FREE ENERGY PREDICTED BY IDOCK:   -2.04 KCAL/MOL
REMARK 922        TOTAL FREE ENERGY PREDICTED BY IDOCK:   -3.24 KCAL/MOL
REMARK 923 INTER-LIGAND FREE ENERGY PREDICTED BY IDOCK:   -5.59 KCAL/MOL
REMARK 924 INTRA-LIGAND FREE ENERGY PREDICTED BY IDOCK:    2.35 KCAL/MOL
REMARK 927      BINDING AFFINITY PREDICTED BY RF-SCORE:    0.00 PKD
ROOT
HETATM    1  C   UNL     1     -10.867  19.578  67.347  1.00  0.00    -0.414 C  
HETATM    2  N   UNL     1     -10.184  18.397  66.849  1.00  0.00    -0.360 N  
HETATM    3  C   UNL     1      -8.836  18.555  66.511  1.00  0.00    -0.293 C  
HETATM    4  C   UNL     1     -10.769  17.100  67.148  1.00  0.00    -0.177 C  
HETATM    5  O   UNL     1      -8.290  19.657  66.571  1.00  0.00    -0.299 OA 
ENDROOT
BRANCH   3   6
HETATM    6  C   UNL     1      -8.098  17.299  66.044  1.00  0.00    -0.187 C  
BRANCH   6   7
HETATM    7  C   UNL     1      -8.135  16.224  67.081  1.00  0.00    -0.188 A  
HETATM    8  C   UNL     1      -7.636  16.151  68.378  1.00  0.00    -0.158 A  
HETATM    9  N   UNL     1      -7.803  14.879  68.887  1.00  0.00    -0.151 NA 
HETATM   10  N   UNL     1      -8.741  14.997  66.863  1.00  0.00    -0.242 NA 
HETATM   11  C   UNL     1      -8.466  14.210  67.973  1.00  0.00    -0.171 A  
HETATM   12  C   UNL     1      -9.484  14.539  65.770  1.00  0.00    -0.123 A  
HETATM   13  C   UNL     1     -10.771  12.734  64.631  1.00  0.00    -0.361 C  
HETATM   14  C   UNL     1      -8.930  12.866  67.951  1.00  0.00    -0.193 A  
HETATM   15  C   UNL     1      -9.949  13.274  65.757  1.00  0.00    -0.261 A  
HETATM   16  C   UNL     1      -9.635  12.411  66.895  1.00  0.00    -0.219 A  
BRANCH   8  17
HETATM   17  C   UNL     1      -6.951  17.202  69.121  1.00  0.00    -0.224 A  
HETATM   18  C   UNL     1      -6.760  19.557  69.719  1.00  0.00    -0.265 A  
HETATM   19  C   UNL     1      -5.738  19.268  70.630  1.00  0.00    -0.214 A  
HETATM   20  C   UNL     1      -5.281  17.952  70.732  1.00  0.00    -0.279 A  
HETATM   21  C   UNL     1      -5.872  16.937  69.972  1.00  0.00    -0.213 A  
HETATM   22  C   UNL     1      -7.361  18.533  68.976  1.00  0.00    -0.243 A  
HETATM   23  C   UNL     1      -5.134  20.358  71.464  1.00  0.00    -0.352 C  
ENDBRANCH   8  17
ENDBRANCH   6   7
ENDBRANCH   3   6
TORSDOF 3
ENDMDL
MODEL      165
REMARK 921   NORMALIZED FREE ENERGY PREDICTED BY IDOCK:   -1.30 KCAL/MOL
REMARK 922        TOTAL FREE ENERGY PREDICTED BY IDOCK:   -2.37 KCAL/MOL
REMARK 923 INTER-LIGAND FREE ENERGY PREDICTED BY IDOCK:   -2.42 KCAL/MOL
REMARK 924 INTRA-LIGAND FREE ENERGY PREDICTED BY IDOCK:    0.04 KCAL/MOL
REMARK 927      BINDING AFFINITY PREDICTED BY RF-SCORE:    0.00 PKD
ROOT
HETATM    1  C   UNL     1     -10.897  13.735  66.998  1.00  0.00    -0.284 C  
HETATM    2  N   UNL     1      -9.747  12.991  66.515  1.00  0.00    -0.262 N  
HETATM    3  C   UNL     1      -8.555  13.161  67.226  1.00  0.00    -0.210 C  
HETATM    4  C   UNL     1      -9.994  11.838  65.666  1.00  0.00    -0.240 C  
HETATM    5  O   UNL     1      -8.481  13.954  68.165  1.00  0.00    -0.155 OA 
ENDROOT
BRANCH   3   6
HETATM    6  C   UNL     1      -7.357  12.333  66.757  1.00  0.00     0.133 C  
BRANCH   6   7
HETATM    7  C   UNL     1      -6.864  11.423  67.835  1.00  0.00    -0.072 A  
HETATM    8  C   UNL     1      -6.800  10.036  67.937  1.00  0.00    -0.075 A  
HETATM    9  N   UNL     1      -6.390   9.666  69.202  1.00  0.00    -0.041 NA 
HETATM   10  N   UNL     1      -6.345  11.892  69.029  1.00  0.00    -0.073 NA 
HETATM   11  C   UNL     1      -6.119  10.784  69.834  1.00  0.00    -0.094 A  
HETATM   12  C   UNL     1      -6.081  13.202  69.447  1.00  0.00    -0.107 A  
HETATM   13  C   UNL     1      -5.280  14.801  71.182  1.00  0.00    -0.137 C  
HETATM   14  C   UNL     1      -5.646  11.021  71.154  1.00  0.00     0.020 A  
HETATM   15  C   UNL     1      -5.607  13.428  70.687  1.00  0.00    -0.177 A  
HETATM   16  C   UNL     1      -5.403  12.281  71.570  1.00  0.00     0.046 A  
BRANCH   8  17
HETATM   17  C   UNL     1      -7.175   9.057  66.924  1.00  0.00    -0.086 A  
HETATM   18  C   UNL     1      -6.571   7.735  64.968  1.00  0.00    -0.047 A  
HETATM   19  C   UNL     1      -7.804   7.074  65.004  1.00  0.00    -0.125 A  
HETATM   20  C   UNL     1      -8.745   7.457  65.962  1.00  0.00    -0.171 A  
HETATM   21  C   UNL     1      -8.436   8.450  66.899  1.00  0.00    -0.117 A  
HETATM   22  C   UNL     1      -6.260   8.714  65.921  1.00  0.00    -0.056 A  
HETATM   23  C   UNL     1      -8.112   5.988  64.017  1.00  0.00    -0.089 C  
ENDBRANCH   8  17
ENDBRANCH   6   7
ENDBRANCH   3   6
TORSDOF 3
ENDMDL
MODEL      166
REMARK 921   NORMALIZED FREE ENERGY PREDICTED BY IDOCK:   -1.19 KCAL/MOL
REMARK 922        TOTAL FREE ENERGY PREDICTED BY IDOCK:   -2.24 KCAL/MOL
REMARK 923 INTER-LIGAND FREE ENERGY PREDICTED BY IDOCK:   -3.10 KCAL/MOL
REMARK 924 INTRA-LIGAND FREE ENERGY PREDICTED BY IDOCK:    0.86 KCAL/MOL
REMARK 927      BINDING AFFINITY PREDICTED BY RF-SCORE:    0.00 PKD
ROOT
HETATM    1  C   UNL     1      -5.246  18.977  65.485  1.00  0.00    -0.157 C  
HETATM    2  N   UNL     1      -5.451  17.951  66.493  1.00  0.00    -0.149 N  
HETATM    3  C   UNL     1      -5.751  18.400  67.782  1.00  0.00    -0.163 C  
HETATM    4  C   UNL     1      -5.772  16.609  66.036  1.00  0.00     1.237 C  
HETATM    5  O   UNL     1      -5.768  19.601  68.051  1.00  0.00    -0.200 OA 
ENDROOT
BRANCH   3   6
HETATM    6  C   UNL     1      -6.028  17.322  68.832  1.00  0.00    -0.176 C  
BRANCH   6   7
HETATM    7  C   UNL     1      -7.408  16.767  68.697  1.00  0.00    -0.218 A  
HETATM    8  C   UNL     1      -7.926  15.485  68.855  1.00  0.00    -0.187 A  
HETATM    9  N   UNL     1      -9.253  15.451  68.478  1.00  0.00    -0.191 NA 
HETATM   10  N   UNL     1      -8.497  17.549  68.348  1.00  0.00    -0.268 NA 
HETATM   11  C   UNL     1      -9.575  16.689  68.185  1.00  0.00    -0.228 A  
HETATM   12  C   UNL     1      -8.590  18.932  68.154  1.00  0.00    -0.316 A  
HETATM   13  C   UNL     1      -9.930  20.951  67.573  1.00  0.00    -0.209 C  
HETATM   14  C   UNL     1     -10.805  17.259  67.753  1.00  0.00    -0.261 A  
HETATM   15  C   UNL     1      -9.760  19.478  67.771  1.00  0.00    -0.458 A  
HETATM   16  C   UNL     1     -10.900  18.589  67.550  1.00  0.00    -0.337 A  
BRANCH   8  17
HETATM   17  C   UNL     1      -7.206  14.287  69.273  1.00  0.00    -0.083 A  
HETATM   18  C   UNL     1      -5.527  13.247  70.701  1.00  0.00    -0.165 A  
HETATM   19  C   UNL     1      -5.860  11.980  70.210  1.00  0.00    -0.164 A  
HETATM   20  C   UNL     1      -6.821  11.880  69.202  1.00  0.00    -0.099 A  
HETATM   21  C   UNL     1      -7.471  13.024  68.730  1.00  0.00    -0.049 A  
HETATM   22  C   UNL     1      -6.196  14.388  70.238  1.00  0.00    -0.172 A  
HETATM   23  C   UNL     1      -5.180  10.755  70.748  1.00  0.00    -0.091 C  
ENDBRANCH   8  17
ENDBRANCH   6   7
ENDBRANCH   3   6
TORSDOF 3
ENDMDL
MODEL      167
REMARK 921   NORMALIZED FREE ENERGY PREDICTED BY IDOCK:   -0.53 KCAL/MOL
REMARK 922        TOTAL FREE ENERGY PREDICTED BY IDOCK:   -1.47 KCAL/MOL
REMARK 923 INTER-LIGAND FREE ENERGY PREDICTED BY IDOCK:   -0.78 KCAL/MOL
REMARK 924 INTRA-LIGAND FREE ENERGY PREDICTED BY IDOCK:   -0.68 KCAL/MOL
REMARK 927      BINDING AFFINITY PREDICTED BY RF-SCORE:    0.00 PKD
ROOT
HETATM    1  C   UNL     1     -12.147   8.340  70.662  1.00  0.00     0.042 C  
HETATM    2  N   UNL     1     -10.844   8.953  70.472  1.00  0.00    -0.228 N  
HETATM    3  C   UNL     1     -10.773   9.979  69.526  1.00  0.00    -0.244 C  
HETATM    4  C   UNL     1      -9.862   8.796  71.532  1.00  0.00    -0.301 C  
HETATM    5  O   UNL     1     -11.752  10.288  68.847  1.00  0.00    -0.140 OA 
ENDROOT
BRANCH   3   6
HETATM    6  C   UNL     1      -9.416  10.668  69.367  1.00  0.00    -0.101 C  
BRANCH   6   7
HETATM    7  C   UNL     1      -8.987  10.712  67.937  1.00  0.00    -0.138 A  
HETATM    8  C   UNL     1      -8.274   9.821  67.141  1.00  0.00    -0.121 A  
HETATM    9  N   UNL     1      -8.006  10.383  65.910  1.00  0.00    -0.145 NA 
HETATM   10  N   UNL     1      -9.271  11.783  67.105  1.00  0.00    -0.175 NA 
HETATM   11  C   UNL     1      -8.611  11.547  65.906  1.00  0.00     0.009 A  
HETATM   12  C   UNL     1     -10.039  12.929  67.338  1.00  0.00    -0.223 A  
HETATM   13  C   UNL     1     -10.972  15.105  66.561  1.00  0.00    -0.318 C  
HETATM   14  C   UNL     1      -8.696  12.554  64.905  1.00  0.00     1.689 A  
HETATM   15  C   UNL     1     -10.144  13.872  66.382  1.00  0.00    -0.298 A  
HETATM   16  C   UNL     1      -9.423  13.669  65.127  1.00  0.00     0.414 A  
BRANCH   8  17
HETATM   17  C   UNL     1      -7.778   8.502  67.518  1.00  0.00    -0.098 A  
HETATM   18  C   UNL     1      -7.534   6.133  67.000  1.00  0.00    -0.087 A  
HETATM   19  C   UNL     1      -6.738   5.942  68.136  1.00  0.00    -0.058 A  
HETATM   20  C   UNL     1      -6.522   7.022  68.994  1.00  0.00    -0.036 A  
HETATM   21  C   UNL     1      -7.052   8.281  68.694  1.00  0.00    -0.072 A  
HETATM   22  C   UNL     1      -8.045   7.401  66.694  1.00  0.00    -0.123 A  
HETATM   23  C   UNL     1      -6.147   4.596  68.431  1.00  0.00    -0.031 C  
ENDBRANCH   8  17
ENDBRANCH   6   7
ENDBRANCH   3   6
TORSDOF 3
ENDMDL
MODEL      168
REMARK 921   NORMALIZED FREE ENERGY PREDICTED BY IDOCK:    0.08 KCAL/MOL
REMARK 922        TOTAL FREE ENERGY PREDICTED BY IDOCK:   -0.75 KCAL/MOL
REMARK 923 INTER-LIGAND FREE ENERGY PREDICTED BY IDOCK:   -0.16 KCAL/MOL
REMARK 924 INTRA-LIGAND FREE ENERGY PREDICTED BY IDOCK:   -0.59 KCAL/MOL
REMARK 927      BINDING AFFINITY PREDICTED BY RF-SCORE:    0.00 PKD
ROOT
HETATM    1  C   UNL     1     -11.794  17.066  69.990  1.00  0.00     1.870 C  
HETATM    2  N   UNL     1     -10.522  16.740  69.370  1.00  0.00    -0.327 N  
HETATM    3  C   UNL     1      -9.980  15.490  69.686  1.00  0.00    -0.284 C  
HETATM    4  C   UNL     1     -10.140  17.480  68.179  1.00  0.00    -0.341 C  
HETATM    5  O   UNL     1     -10.527  14.747  70.500  1.00  0.00     0.081 OA 
ENDROOT
BRANCH   3   6
HETATM    6  C   UNL     1      -8.671  15.119  68.988  1.00  0.00    -0.215 C  
BRANCH   6   7
HETATM    7  C   UNL     1      -8.706  13.720  68.464  1.00  0.00    -0.118 A  
HETATM    8  C   UNL     1      -9.455  13.110  67.461  1.00  0.00    -0.212 A  
HETATM    9  N   UNL     1      -9.225  11.750  67.449  1.00  0.00    -0.171 NA 
HETATM   10  N   UNL     1      -7.904  12.711  68.972  1.00  0.00     0.151 NA 
HETATM   11  C   UNL     1      -8.297  11.533  68.351  1.00  0.00    -0.154 A  
HETATM   12  C   UNL     1      -6.889  12.763  69.934  1.00  0.00     0.382 A  
HETATM   13  C   UNL     1      -5.151  11.625  71.310  1.00  0.00    -0.094 C  
HETATM   14  C   UNL     1      -7.656  10.332  68.764  1.00  0.00    -0.093 A  
HETATM   15  C   UNL     1      -6.261  11.632  70.308  1.00  0.00    -0.068 A  
HETATM   16  C   UNL     1      -6.686  10.371  69.701  1.00  0.00    -0.095 A  
BRANCH   8  17
HETATM   17  C   UNL     1     -10.422  13.743  66.572  1.00  0.00    -0.282 A  
HETATM   18  C   UNL     1     -10.970  15.535  65.014  1.00  0.00    -0.454 A  
HETATM   19  C   UNL     1     -12.212  14.951  64.741  1.00  0.00    -0.291 A  
HETATM   20  C   UNL     1     -12.580  13.799  65.438  1.00  0.00    -0.534 A  
HETATM   21  C   UNL     1     -11.699  13.215  66.354  1.00  0.00    -0.429 A  
HETATM   22  C   UNL     1     -10.084  14.935  65.918  1.00  0.00    -0.348 A  
HETATM   23  C   UNL     1     -13.135  15.567  63.732  1.00  0.00     1.867 C  
ENDBRANCH   8  17
ENDBRANCH   6   7
ENDBRANCH   3   6
TORSDOF 3
ENDMDL
MODEL      169
REMARK 921   NORMALIZED FREE ENERGY PREDICTED BY IDOCK:    0.43 KCAL/MOL
REMARK 922        TOTAL FREE ENERGY PREDICTED BY IDOCK:   -0.33 KCAL/MOL
REMARK 923 INTER-LIGAND FREE ENERGY PREDICTED BY IDOCK:   -0.55 KCAL/MOL
REMARK 924 INTRA-LIGAND FREE ENERGY PREDICTED BY IDOCK:    0.21 KCAL/MOL
REMARK 927      BINDING AFFINITY PREDICTED BY RF-SCORE:    0.00 PKD
ROOT
HETATM    1  C   UNL     1     -11.682  16.943  70.225  1.00  0.00     1.164 C  
HETATM    2  N   UNL     1     -10.380  16.327  70.036  1.00  0.00    -0.176 N  
HETATM    3  C   UNL     1     -10.315  14.943  70.226  1.00  0.00     0.142 C  
HETATM    4  C   UNL     1      -9.392  17.058  69.261  1.00  0.00     0.018 C  
HETATM    5  O   UNL     1     -11.299  14.305  70.601  1.00  0.00    -0.144 OA 
ENDROOT
BRANCH   3   6
HETATM    6  C   UNL     1      -8.960  14.283  69.968  1.00  0.00     1.390 C  
BRANCH   6   7
HETATM    7  C   UNL     1      -8.882  13.710  68.590  1.00  0.00    -0.023 A  
HETATM    8  C   UNL     1      -8.404  14.219  67.386  1.00  0.00    -0.198 A  
HETATM    9  N   UNL     1      -8.684  13.351  66.351  1.00  0.00     0.113 NA 
HETATM   10  N   UNL     1      -9.338  12.439  68.282  1.00  0.00    -0.211 NA 
HETATM   11  C   UNL     1      -9.235  12.296  66.905  1.00  0.00    -0.209 A  
HETATM   12  C   UNL     1      -9.839  11.434  69.116  1.00  0.00     0.057 A  
HETATM   13  C   UNL     1     -10.789   9.150  69.424  1.00  0.00    -0.165 C  
HETATM   14  C   UNL     1      -9.714  11.084  66.336  1.00  0.00    -0.235 A  
HETATM   15  C   UNL     1     -10.268  10.273  68.584  1.00  0.00    -0.196 A  
HETATM   16  C   UNL     1     -10.212  10.114  67.131  1.00  0.00    -0.278 A  
BRANCH   8  17
HETATM   17  C   UNL     1      -7.765  15.511  67.165  1.00  0.00    -0.257 A  
HETATM   18  C   UNL     1      -7.839  17.741  66.183  1.00  0.00    -0.262 A  
HETATM   19  C   UNL     1      -6.629  18.079  66.801  1.00  0.00    -0.220 A  
HETATM   20  C   UNL     1      -5.960  17.106  67.545  1.00  0.00    -0.157 A  
HETATM   21  C   UNL     1      -6.516  15.833  67.708  1.00  0.00    -0.176 A  
HETATM   22  C   UNL     1      -8.401  16.471  66.367  1.00  0.00    -0.358 A  
HETATM   23  C   UNL     1      -6.059  19.457  66.647  1.00  0.00    -0.165 C  
ENDBRANCH   8  17
ENDBRANCH   6   7
ENDBRANCH   3   6
TORSDOF 3
ENDMDL
MODEL      170
REMARK 921   NORMALIZED FREE ENERGY PREDICTED BY IDOCK:    0.58 KCAL/MOL
REMARK 922        TOTAL FREE ENERGY PREDICTED BY IDOCK:   -0.16 KCAL/MOL
REMARK 923 INTER-LIGAND FREE ENERGY PREDICTED BY IDOCK:   -0.36 KCAL/MOL
REMARK 924 INTRA-LIGAND FREE ENERGY PREDICTED BY IDOCK:    0.19 KCAL/MOL
REMARK 927      BINDING AFFINITY PREDICTED BY RF-SCORE:    0.00 PKD
ROOT
HETATM    1  C   UNL     1      -9.398   7.636  69.412  1.00  0.00    -0.152 C  
HETATM    2  N   UNL     1      -8.362   8.437  68.784  1.00  0.00    -0.116 N  
HETATM    3  C   UNL     1      -8.798   9.490  67.974  1.00  0.00    -0.123 C  
HETATM    4  C   UNL     1      -7.029   8.394  69.361  1.00  0.00    -0.050 C  
HETATM    5  O   UNL     1      -9.997   9.674  67.758  1.00  0.00    -0.156 OA 
ENDROOT
BRANCH   3   6
HETATM    6  C   UNL     1      -7.711  10.373  67.359  1.00  0.00    -0.095 C  
BRANCH   6   7
HETATM    7  C   UNL     1      -8.279  11.642  66.812  1.00  0.00    -0.161 A  
HETATM    8  C   UNL     1      -8.156  12.972  67.202  1.00  0.00    -0.107 A  
HETATM    9  N   UNL     1      -8.997  13.773  66.456  1.00  0.00    -0.127 NA 
HETATM   10  N   UNL     1      -9.115  11.671  65.708  1.00  0.00    -0.169 NA 
HETATM   11  C   UNL     1      -9.554  12.981  65.570  1.00  0.00     0.047 A  
HETATM   12  C   UNL     1      -9.516  10.640  64.852  1.00  0.00    -0.243 A  
HETATM   13  C   UNL     1     -10.826   9.843  62.887  1.00  0.00     3.373 C  
HETATM   14  C   UNL     1     -10.490  13.250  64.533  1.00  0.00    -0.434 A  
HETATM   15  C   UNL     1     -10.381  10.896  63.852  1.00  0.00    -0.397 A  
HETATM   16  C   UNL     1     -10.893  12.259  63.711  1.00  0.00    -0.495 A  
BRANCH   8  17
HETATM   17  C   UNL     1      -7.340  13.503  68.288  1.00  0.00    -0.116 A  
HETATM   18  C   UNL     1      -6.648  15.403  69.649  1.00  0.00    -0.178 A  
HETATM   19  C   UNL     1      -5.872  14.568  70.462  1.00  0.00    -0.173 A  
HETATM   20  C   UNL     1      -5.782  13.212  70.141  1.00  0.00    -0.141 A  
HETATM   21  C   UNL     1      -6.495  12.693  69.056  1.00  0.00    -0.097 A  
HETATM   22  C   UNL     1      -7.376  14.873  68.576  1.00  0.00    -0.119 A  
HETATM   23  C   UNL     1      -5.137  15.129  71.643  1.00  0.00    -0.129 C  
ENDBRANCH   8  17
ENDBRANCH   6   7
ENDBRANCH   3   6
TORSDOF 3
ENDMDL
MODEL      171
REMARK 921   NORMALIZED FREE ENERGY PREDICTED BY IDOCK:    1.17 KCAL/MOL
REMARK 922        TOTAL FREE ENERGY PREDICTED BY IDOCK:    0.53 KCAL/MOL
REMARK 923 INTER-LIGAND FREE ENERGY PREDICTED BY IDOCK:   -1.56 KCAL/MOL
REMARK 924 INTRA-LIGAND FREE ENERGY PREDICTED BY IDOCK:    2.09 KCAL/MOL
REMARK 927      BINDING AFFINITY PREDICTED BY RF-SCORE:    0.00 PKD
ROOT
HETATM    1  C   UNL     1     -10.474   6.254  66.863  1.00  0.00    -0.272 C  
HETATM    2  N   UNL     1     -10.066   7.376  67.691  1.00  0.00    -0.172 N  
HETATM    3  C   UNL     1     -10.613   8.620  67.363  1.00  0.00    -0.228 C  
HETATM    4  C   UNL     1      -9.518   7.083  69.005  1.00  0.00    -0.138 C  
HETATM    5  O   UNL     1     -11.344   8.756  66.382  1.00  0.00     1.345 OA 
ENDROOT
BRANCH   3   6
HETATM    6  C   UNL     1     -10.233   9.792  68.270  1.00  0.00    -0.212 C  
BRANCH   6   7
HETATM    7  C   UNL     1      -8.930  10.401  67.862  1.00  0.00    -0.128 A  
HETATM    8  C   UNL     1      -8.548  11.712  67.595  1.00  0.00    -0.142 A  
HETATM    9  N   UNL     1      -7.255  11.748  67.114  1.00  0.00    -0.141 NA 
HETATM   10  N   UNL     1      -7.784   9.649  67.665  1.00  0.00    -0.094 NA 
HETATM   11  C   UNL     1      -6.817  10.512  67.167  1.00  0.00    -0.084 A  
HETATM   12  C   UNL     1      -7.552   8.285  67.873  1.00  0.00    -0.102 A  
HETATM   13  C   UNL     1      -6.034   6.310  67.794  1.00  0.00    -0.017 C  
HETATM   14  C   UNL     1      -5.558   9.950  66.817  1.00  0.00    -0.046 A  
HETATM   15  C   UNL     1      -6.352   7.754  67.568  1.00  0.00    -0.055 A  
HETATM   16  C   UNL     1      -5.330   8.633  67.001  1.00  0.00    -0.037 A  
BRANCH   8  17
HETATM   17  C   UNL     1      -9.369  12.912  67.706  1.00  0.00    -0.203 A  
HETATM   18  C   UNL     1     -11.350  14.161  67.029  1.00  0.00    -0.346 A  
HETATM   19  C   UNL     1     -11.068  15.162  67.965  1.00  0.00    -0.310 A  
HETATM   20  C   UNL     1      -9.899  15.064  68.722  1.00  0.00    -0.233 A  
HETATM   21  C   UNL     1      -9.054  13.959  68.579  1.00  0.00    -0.143 A  
HETATM   22  C   UNL     1     -10.510  13.046  66.904  1.00  0.00    -0.258 A  
HETATM   23  C   UNL     1     -11.999  16.326  68.135  1.00  0.00     0.459 C  
ENDBRANCH   8  17
ENDBRANCH   6   7
ENDBRANCH   3   6
TORSDOF 3
ENDMDL
MODEL      172
REMARK 921   NORMALIZED FREE ENERGY PREDICTED BY IDOCK:    2.07 KCAL/MOL
REMARK 922        TOTAL FREE ENERGY PREDICTED BY IDOCK:    1.59 KCAL/MOL
REMARK 923 INTER-LIGAND FREE ENERGY PREDICTED BY IDOCK:    0.54 KCAL/MOL
REMARK 924 INTRA-LIGAND FREE ENERGY PREDICTED BY IDOCK:    1.04 KCAL/MOL
REMARK 927      BINDING AFFINITY PREDICTED BY RF-SCORE:    0.00 PKD
ROOT
HETATM    1  C   UNL     1     -10.436  13.642  67.839  1.00  0.00    -0.247 C  
HETATM    2  N   UNL     1      -9.935  12.373  67.340  1.00  0.00    -0.201 N  
HETATM    3  C   UNL     1      -8.780  11.878  67.952  1.00  0.00    -0.167 C  
HETATM    4  C   UNL     1     -10.858  11.523  66.606  1.00  0.00    -0.287 C  
HETATM    5  O   UNL     1      -8.190  12.526  68.816  1.00  0.00    -0.032 OA 
ENDROOT
BRANCH   3   6
HETATM    6  C   UNL     1      -8.284  10.514  67.470  1.00  0.00    -0.114 C  
BRANCH   6   7
HETATM    7  C   UNL     1      -8.142   9.551  68.604  1.00  0.00    -0.097 A  
HETATM    8  C   UNL     1      -8.606   8.253  68.799  1.00  0.00    -0.133 A  
HETATM    9  N   UNL     1      -8.329   7.831  70.083  1.00  0.00    -0.127 NA 
HETATM   10  N   UNL     1      -7.447   9.858  69.761  1.00  0.00    -0.121 NA 
HETATM   11  C   UNL     1      -7.635   8.797  70.638  1.00  0.00    -0.090 A  
HETATM   12  C   UNL     1      -6.693  10.991  70.088  1.00  0.00    -0.025 A  
HETATM   13  C   UNL     1      -5.292  12.265  71.708  1.00  0.00     0.184 C  
HETATM   14  C   UNL     1      -7.067   8.915  71.937  1.00  0.00     0.003 A  
HETATM   15  C   UNL     1      -6.131  11.093  71.309  1.00  0.00     0.643 A  
HETATM   16  C   UNL     1      -6.351  10.010  72.266  1.00  0.00     1.017 A  
BRANCH   8  17
HETATM   17  C   UNL     1      -9.356   7.432  67.856  1.00  0.00    -0.138 A  
HETATM   18  C   UNL     1      -9.467   6.288  65.707  1.00  0.00     0.135 A  
HETATM   19  C   UNL     1     -10.713   5.742  66.034  1.00  0.00     0.187 A  
HETATM   20  C   UNL     1     -11.305   6.099  67.247  1.00  0.00     0.049 A  
HETATM   21  C   UNL     1     -10.638   6.948  68.137  1.00  0.00    -0.262 A  
HETATM   22  C   UNL     1      -8.795   7.122  66.610  1.00  0.00    -0.142 A  
HETATM   23  C   UNL     1     -11.404   4.806  65.088  1.00  0.00     0.506 C  
ENDBRANCH   8  17
ENDBRANCH   6   7
ENDBRANCH   3   6
TORSDOF 3
ENDMDL
MODEL      173
REMARK 921   NORMALIZED FREE ENERGY PREDICTED BY IDOCK:    6.63 KCAL/MOL
REMARK 922        TOTAL FREE ENERGY PREDICTED BY IDOCK:    6.94 KCAL/MOL
REMARK 923 INTER-LIGAND FREE ENERGY PREDICTED BY IDOCK:    6.04 KCAL/MOL
REMARK 924 INTRA-LIGAND FREE ENERGY PREDICTED BY IDOCK:    0.90 KCAL/MOL
REMARK 927      BINDING AFFINITY PREDICTED BY RF-SCORE:    0.00 PKD
ROOT
HETATM    1  C   UNL     1     -12.162  19.842  67.000  1.00  0.00     3.112 C  
HETATM    2  N   UNL     1     -11.341  19.042  67.890  1.00  0.00     0.310 N  
HETATM    3  C   UNL     1     -11.753  17.722  68.096  1.00  0.00     1.590 C  
HETATM    4  C   UNL     1      -9.977  19.483  68.132  1.00  0.00    -0.418 C  
HETATM    5  O   UNL     1     -12.795  17.295  67.598  1.00  0.00     3.528 OA 
ENDROOT
BRANCH   3   6
HETATM    6  C   UNL     1     -10.857  16.858  68.985  1.00  0.00    -0.255 C  
BRANCH   6   7
HETATM    7  C   UNL     1      -9.832  16.124  68.183  1.00  0.00    -0.227 A  
HETATM    8  C   UNL     1      -8.448  16.239  68.094  1.00  0.00    -0.174 A  
HETATM    9  N   UNL     1      -7.960  15.422  67.095  1.00  0.00    -0.201 NA 
HETATM   10  N   UNL     1     -10.161  15.105  67.304  1.00  0.00    -0.241 NA 
HETATM   11  C   UNL     1      -8.993  14.752  66.641  1.00  0.00    -0.255 A  
HETATM   12  C   UNL     1     -11.395  14.498  67.047  1.00  0.00    -0.349 A  
HETATM   13  C   UNL     1     -12.772  12.834  65.803  1.00  0.00     0.147 C  
HETATM   14  C   UNL     1      -9.093  13.761  65.626  1.00  0.00     0.626 A  
HETATM   15  C   UNL     1     -11.488  13.539  66.105  1.00  0.00    -0.348 A  
HETATM   16  C   UNL     1     -10.281  13.180  65.361  1.00  0.00    -0.301 A  
BRANCH   8  17
HETATM   17  C   UNL     1      -7.586  17.135  68.856  1.00  0.00    -0.234 A  
HETATM   18  C   UNL     1      -6.731  19.383  69.250  1.00  0.00    -0.370 A  
HETATM   19  C   UNL     1      -6.023  18.943  70.374  1.00  0.00    -0.107 A  
HETATM   20  C   UNL     1      -6.048  17.584  70.694  1.00  0.00     0.580 A  
HETATM   21  C   UNL     1      -6.807  16.691  69.932  1.00  0.00     0.247 A  
HETATM   22  C   UNL     1      -7.506  18.488  68.502  1.00  0.00    -0.318 A  
HETATM   23  C   UNL     1      -5.239  19.915  71.205  1.00  0.00    -0.297 C  
ENDBRANCH   8  17
ENDBRANCH   6   7
ENDBRANCH   3   6
TORSDOF 3
ENDMDL
MODEL      174
REMARK 921   NORMALIZED FREE ENERGY PREDICTED BY IDOCK:   15.26 KCAL/MOL
REMARK 922        TOTAL FREE ENERGY PREDICTED BY IDOCK:   17.09 KCAL/MOL
REMARK 923 INTER-LIGAND FREE ENERGY PREDICTED BY IDOCK:   13.06 KCAL/MOL
REMARK 924 INTRA-LIGAND FREE ENERGY PREDICTED BY IDOCK:    4.04 KCAL/MOL
REMARK 927      BINDING AFFINITY PREDICTED BY RF-SCORE:    0.00 PKD
ROOT
HETATM    1  C   UNL     1      -8.789  12.129  64.244  1.00  0.00     1.185 C  
HETATM    2  N   UNL     1      -9.442  10.842  64.406  1.00  0.00    -0.232 N  
HETATM    3  C   UNL     1     -10.215  10.679  65.559  1.00  0.00    -0.262 C  
HETATM    4  C   UNL     1      -9.623  10.022  63.220  1.00  0.00    -0.059 C  
HETATM    5  O   UNL     1     -10.273  11.561  66.417  1.00  0.00    -0.212 OA 
ENDROOT
BRANCH   3   6
HETATM    6  C   UNL     1     -10.952   9.347  65.703  1.00  0.00     2.017 C  
BRANCH   6   7
HETATM    7  C   UNL     1     -10.673   8.705  67.023  1.00  0.00    -0.120 A  
HETATM    8  C   UNL     1     -10.177   9.202  68.225  1.00  0.00    -0.206 A  
HETATM    9  N   UNL     1      -9.963   8.174  69.120  1.00  0.00    -0.187 NA 
HETATM   10  N   UNL     1     -10.890   7.358  67.259  1.00  0.00    -0.292 NA 
HETATM   11  C   UNL     1     -10.398   7.086  68.529  1.00  0.00    -0.186 A  
HETATM   12  C   UNL     1     -11.463   6.379  66.440  1.00  0.00     1.133 A  
HETATM   13  C   UNL     1     -12.160   4.018  66.051  1.00  0.00     7.241 C  
HETATM   14  C   UNL     1     -10.446   5.736  68.973  1.00  0.00    -0.336 A  
HETATM   15  C   UNL     1     -11.535   5.103  66.868  1.00  0.00     1.964 A  
HETATM   16  C   UNL     1     -10.984   4.783  68.184  1.00  0.00     1.291 A  
BRANCH   8  17
HETATM   17  C   UNL     1      -9.833  10.586  68.533  1.00  0.00    -0.175 A  
HETATM   18  C   UNL     1      -8.290  12.458  68.301  1.00  0.00    -0.169 A  
HETATM   19  C   UNL     1      -9.167  13.298  68.997  1.00  0.00     0.423 A  
HETATM   20  C   UNL     1     -10.345  12.758  69.516  1.00  0.00     0.657 A  
HETATM   21  C   UNL     1     -10.662  11.413  69.299  1.00  0.00    -0.195 A  
HETATM   22  C   UNL     1      -8.622  11.117  68.070  1.00  0.00    -0.140 A  
HETATM   23  C   UNL     1      -8.834  14.747  69.195  1.00  0.00    -0.084 C  
ENDBRANCH   8  17
ENDBRANCH   6   7
ENDBRANCH   3   6
TORSDOF 3
ENDMDL
MODEL      175
REMARK 921   NORMALIZED FREE ENERGY PREDICTED BY IDOCK:   46.72 KCAL/MOL
REMARK 922        TOTAL FREE ENERGY PREDICTED BY IDOCK:   54.07 KCAL/MOL
REMARK 923 INTER-LIGAND FREE ENERGY PREDICTED BY IDOCK:   53.96 KCAL/MOL
REMARK 924 INTRA-LIGAND FREE ENERGY PREDICTED BY IDOCK:    0.11 KCAL/MOL
REMARK 927      BINDING AFFINITY PREDICTED BY RF-SCORE:    0.00 PKD
ROOT
HETATM    1  C   UNL     1     -11.372  14.537  68.515  1.00  0.00    -0.286 C  
HETATM    2  N   UNL     1     -10.656  13.294  68.288  1.00  0.00    -0.244 N  
HETATM    3  C   UNL     1      -9.387  13.195  68.865  1.00  0.00     0.273 C  
HETATM    4  C   UNL     1     -11.432  12.129  67.897  1.00  0.00    -0.328 C  
HETATM    5  O   UNL     1      -8.886  14.143  69.470  1.00  0.00     0.400 OA 
ENDROOT
BRANCH   3   6
HETATM    6  C   UNL     1      -8.656  11.864  68.679  1.00  0.00    -0.037 C  
BRANCH   6   7
HETATM    7  C   UNL     1      -8.653  11.059  69.938  1.00  0.00     1.017 A  
HETATM    8  C   UNL     1      -9.153   9.798  70.247  1.00  0.00    -0.157 A  
HETATM    9  N   UNL     1      -9.028   9.549  71.599  1.00  0.00     0.035 NA 
HETATM   10  N   UNL     1      -8.089  11.517  71.116  1.00  0.00     6.082 NA 
HETATM   11  C   UNL     1      -8.389  10.581  72.097  1.00  0.00     7.797 A  
HETATM   12  C   UNL     1      -7.363  12.685  71.375  1.00  0.00     6.837 A  
HETATM   13  C   UNL     1      -6.136  14.165  72.962  1.00  0.00     0.604 C  
HETATM   14  C   UNL     1      -7.969  10.870  73.425  1.00  0.00    12.908 A  
HETATM   15  C   UNL     1      -6.940  12.948  72.627  1.00  0.00     7.224 A  
HETATM   16  C   UNL     1      -7.280  12.000  73.687  1.00  0.00    10.969 A  
BRANCH   8  17
HETATM   17  C   UNL     1      -9.803   8.858  69.341  1.00  0.00    -0.183 A  
HETATM   18  C   UNL     1      -9.717   7.508  67.314  1.00  0.00    -0.217 A  
HETATM   19  C   UNL     1     -10.963   6.944  67.608  1.00  0.00    -0.304 A  
HETATM   20  C   UNL     1     -11.654   7.391  68.736  1.00  0.00     0.791 A  
HETATM   21  C   UNL     1     -11.085   8.349  69.580  1.00  0.00    -0.011 A  
HETATM   22  C   UNL     1      -9.143   8.453  68.174  1.00  0.00    -0.138 A  
HETATM   23  C   UNL     1     -11.550   5.892  66.714  1.00  0.00     0.924 C  
ENDBRANCH   8  17
ENDBRANCH   6   7
ENDBRANCH   3   6
TORSDOF 3
ENDMDL
