MODEL        1
REMARK 921   NORMALIZED FREE ENERGY PREDICTED BY IDOCK:   -6.49 KCAL/MOL
REMARK 922        TOTAL FREE ENERGY PREDICTED BY IDOCK:   -7.65 KCAL/MOL
REMARK 923 INTER-LIGAND FREE ENERGY PREDICTED BY IDOCK:   -7.25 KCAL/MOL
REMARK 924 INTRA-LIGAND FREE ENERGY PREDICTED BY IDOCK:   -0.40 KCAL/MOL
REMARK 927      BINDING AFFINITY PREDICTED BY RF-SCORE:    0.00 PKD
ROOT
HETATM    1  N   UNL     1     -12.370  13.854  63.208  1.00  0.00    -1.148 N  
HETATM    2  S   UNL     1     -12.025  13.448  64.807  1.00  0.00    -0.414 S  
HETATM    3  H1  UNL     1     -11.621  13.428  62.662  1.00  0.00     0.000 HD 
HETATM    4  H2  UNL     1     -13.155  14.405  62.862  1.00  0.00     0.000 HD 
HETATM    5  O   UNL     1     -13.086  14.052  65.579  1.00  0.00    -0.713 OA 
HETATM    6  O   UNL     1     -11.826  12.018  64.759  1.00  0.00    -0.326 OA 
ENDROOT
BRANCH   2   7
HETATM    7  C   UNL     1     -10.464  14.294  65.073  1.00  0.00    -0.435 C  
BRANCH   7   8
HETATM    8  C   UNL     1     -10.631  15.752  65.298  1.00  0.00    -0.423 A  
HETATM    9  N   UNL     1     -11.045  16.525  64.280  1.00  0.00    -0.933 NA 
HETATM   10  O   UNL     1     -11.075  17.818  64.772  1.00  0.00    -0.852 OA 
HETATM   11  C   UNL     1     -10.659  17.823  66.063  1.00  0.00    -0.229 A  
HETATM   12  C   UNL     1     -10.554  18.943  66.885  1.00  0.00    -0.495 A  
HETATM   13  C   UNL     1     -10.100  18.716  68.188  1.00  0.00    -0.418 A  
HETATM   14  C   UNL     1      -9.764  17.430  68.620  1.00  0.00    -0.308 A  
HETATM   15  C   UNL     1      -9.876  16.326  67.762  1.00  0.00    -0.237 A  
HETATM   16  C   UNL     1     -10.349  16.530  66.454  1.00  0.00    -0.316 A  
ENDBRANCH   7   8
ENDBRANCH   2   7
TORSDOF 2
ENDMDL
MODEL        2
REMARK 921   NORMALIZED FREE ENERGY PREDICTED BY IDOCK:   -6.08 KCAL/MOL
REMARK 922        TOTAL FREE ENERGY PREDICTED BY IDOCK:   -7.19 KCAL/MOL
REMARK 923 INTER-LIGAND FREE ENERGY PREDICTED BY IDOCK:   -6.78 KCAL/MOL
REMARK 924 INTRA-LIGAND FREE ENERGY PREDICTED BY IDOCK:   -0.41 KCAL/MOL
REMARK 927      BINDING AFFINITY PREDICTED BY RF-SCORE:    0.00 PKD
ROOT
HETATM    1  N   UNL     1     -13.409  14.280  65.431  1.00  0.00    -0.534 N  
HETATM    2  S   UNL     1     -12.400  12.982  65.061  1.00  0.00    -0.478 S  
HETATM    3  H1  UNL     1     -13.564  14.753  64.541  1.00  0.00     0.000 HD 
HETATM    4  H2  UNL     1     -13.782  14.536  66.345  1.00  0.00     0.000 HD 
HETATM    5  O   UNL     1     -12.180  12.312  66.321  1.00  0.00    -0.628 OA 
HETATM    6  O   UNL     1     -13.067  12.338  63.953  1.00  0.00    -0.772 OA 
ENDROOT
BRANCH   2   7
HETATM    7  C   UNL     1     -10.913  13.819  64.502  1.00  0.00    -0.391 C  
BRANCH   7   8
HETATM    8  C   UNL     1     -10.896  15.259  64.857  1.00  0.00    -0.425 A  
HETATM    9  N   UNL     1     -11.415  16.150  63.995  1.00  0.00    -0.856 NA 
HETATM   10  O   UNL     1     -11.231  17.392  64.573  1.00  0.00    -1.018 OA 
HETATM   11  C   UNL     1     -10.585  17.252  65.758  1.00  0.00    -0.194 A  
HETATM   12  C   UNL     1     -10.224  18.283  66.622  1.00  0.00    -0.399 A  
HETATM   13  C   UNL     1      -9.561  17.907  67.795  1.00  0.00    -0.277 A  
HETATM   14  C   UNL     1      -9.275  16.566  68.062  1.00  0.00    -0.214 A  
HETATM   15  C   UNL     1      -9.648  15.554  67.165  1.00  0.00    -0.228 A  
HETATM   16  C   UNL     1     -10.333  15.909  65.990  1.00  0.00    -0.363 A  
ENDBRANCH   7   8
ENDBRANCH   2   7
TORSDOF 2
ENDMDL
MODEL        3
REMARK 921   NORMALIZED FREE ENERGY PREDICTED BY IDOCK:   -5.69 KCAL/MOL
REMARK 922        TOTAL FREE ENERGY PREDICTED BY IDOCK:   -6.75 KCAL/MOL
REMARK 923 INTER-LIGAND FREE ENERGY PREDICTED BY IDOCK:   -6.31 KCAL/MOL
REMARK 924 INTRA-LIGAND FREE ENERGY PREDICTED BY IDOCK:   -0.44 KCAL/MOL
REMARK 927      BINDING AFFINITY PREDICTED BY RF-SCORE:    0.00 PKD
ROOT
HETATM    1  N   UNL     1     -14.396  15.426  71.015  1.00  0.00    -0.848 N  
HETATM    2  S   UNL     1     -13.547  15.020  72.412  1.00  0.00    -0.504 S  
HETATM    3  H1  UNL     1     -14.228  14.653  70.372  1.00  0.00     0.000 HD 
HETATM    4  H2  UNL     1     -14.956  16.262  70.849  1.00  0.00     0.000 HD 
HETATM    5  O   UNL     1     -13.786  16.115  73.323  1.00  0.00    -0.559 OA 
HETATM    6  O   UNL     1     -13.985  13.672  72.696  1.00  0.00    -0.733 OA 
ENDROOT
BRANCH   2   7
HETATM    7  C   UNL     1     -11.850  15.022  71.825  1.00  0.00    -0.388 C  
BRANCH   7   8
HETATM    8  C   UNL     1     -11.750  14.839  70.356  1.00  0.00    -0.295 A  
HETATM    9  N   UNL     1     -11.723  15.925  69.565  1.00  0.00    -0.343 NA 
HETATM   10  O   UNL     1     -11.659  15.450  68.268  1.00  0.00    -0.351 OA 
HETATM   11  C   UNL     1     -11.674  14.094  68.279  1.00  0.00    -0.348 A  
HETATM   12  C   UNL     1     -11.626  13.265  67.161  1.00  0.00    -0.402 A  
HETATM   13  C   UNL     1     -11.653  11.888  67.406  1.00  0.00    -0.367 A  
HETATM   14  C   UNL     1     -11.736  11.391  68.709  1.00  0.00    -0.404 A  
HETATM   15  C   UNL     1     -11.790  12.256  69.812  1.00  0.00    -0.388 A  
HETATM   16  C   UNL     1     -11.743  13.643  69.587  1.00  0.00    -0.383 A  
ENDBRANCH   7   8
ENDBRANCH   2   7
TORSDOF 2
ENDMDL
MODEL        4
REMARK 921   NORMALIZED FREE ENERGY PREDICTED BY IDOCK:   -5.67 KCAL/MOL
REMARK 922        TOTAL FREE ENERGY PREDICTED BY IDOCK:   -6.73 KCAL/MOL
REMARK 923 INTER-LIGAND FREE ENERGY PREDICTED BY IDOCK:   -6.51 KCAL/MOL
REMARK 924 INTRA-LIGAND FREE ENERGY PREDICTED BY IDOCK:   -0.21 KCAL/MOL
REMARK 927      BINDING AFFINITY PREDICTED BY RF-SCORE:    0.00 PKD
ROOT
HETATM    1  N   UNL     1     -12.366  13.674  63.163  1.00  0.00    -1.076 N  
HETATM    2  S   UNL     1     -12.280  14.679  64.513  1.00  0.00    -0.374 S  
HETATM    3  H1  UNL     1     -12.587  12.751  63.537  1.00  0.00     0.000 HD 
HETATM    4  H2  UNL     1     -12.229  13.932  62.186  1.00  0.00     0.000 HD 
HETATM    5  O   UNL     1     -11.968  15.985  63.983  1.00  0.00    -0.796 OA 
HETATM    6  O   UNL     1     -13.512  14.407  65.218  1.00  0.00    -0.483 OA 
ENDROOT
BRANCH   2   7
HETATM    7  C   UNL     1     -10.881  13.986  65.399  1.00  0.00    -0.328 C  
BRANCH   7   8
HETATM    8  C   UNL     1     -11.272  13.332  66.672  1.00  0.00    -0.306 A  
HETATM    9  N   UNL     1     -11.574  12.023  66.667  1.00  0.00    -0.513 NA 
HETATM   10  O   UNL     1     -11.926  11.708  67.967  1.00  0.00    -0.577 OA 
HETATM   11  C   UNL     1     -11.861  12.822  68.739  1.00  0.00    -0.307 A  
HETATM   12  C   UNL     1     -12.148  12.894  70.100  1.00  0.00    -0.373 A  
HETATM   13  C   UNL     1     -12.014  14.151  70.697  1.00  0.00    -0.385 A  
HETATM   14  C   UNL     1     -11.624  15.265  69.951  1.00  0.00    -0.335 A  
HETATM   15  C   UNL     1     -11.350  15.157  68.579  1.00  0.00    -0.321 A  
HETATM   16  C   UNL     1     -11.459  13.898  67.964  1.00  0.00    -0.339 A  
ENDBRANCH   7   8
ENDBRANCH   2   7
TORSDOF 2
ENDMDL
MODEL        5
REMARK 921   NORMALIZED FREE ENERGY PREDICTED BY IDOCK:   -5.62 KCAL/MOL
REMARK 922        TOTAL FREE ENERGY PREDICTED BY IDOCK:   -6.67 KCAL/MOL
REMARK 923 INTER-LIGAND FREE ENERGY PREDICTED BY IDOCK:   -6.53 KCAL/MOL
REMARK 924 INTRA-LIGAND FREE ENERGY PREDICTED BY IDOCK:   -0.14 KCAL/MOL
REMARK 927      BINDING AFFINITY PREDICTED BY RF-SCORE:    0.00 PKD
ROOT
HETATM    1  N   UNL     1     -12.284  14.175  67.981  1.00  0.00    -0.561 N  
HETATM    2  S   UNL     1     -12.008  13.556  66.438  1.00  0.00    -0.418 S  
HETATM    3  H1  UNL     1     -12.441  15.173  67.838  1.00  0.00     0.000 HD 
HETATM    4  H2  UNL     1     -12.294  13.665  68.863  1.00  0.00     0.000 HD 
HETATM    5  O   UNL     1     -11.787  12.143  66.640  1.00  0.00    -0.566 OA 
HETATM    6  O   UNL     1     -13.120  14.058  65.665  1.00  0.00    -0.639 OA 
ENDROOT
BRANCH   2   7
HETATM    7  C   UNL     1     -10.488  14.391  65.973  1.00  0.00    -0.301 C  
BRANCH   7   8
HETATM    8  C   UNL     1     -10.690  15.831  65.678  1.00  0.00    -0.348 A  
HETATM    9  N   UNL     1     -11.095  16.194  64.450  1.00  0.00    -0.677 NA 
HETATM   10  O   UNL     1     -11.164  17.575  64.464  1.00  0.00    -0.926 OA 
HETATM   11  C   UNL     1     -10.779  18.038  65.679  1.00  0.00    -0.043 A  
HETATM   12  C   UNL     1     -10.718  19.374  66.066  1.00  0.00    -0.512 A  
HETATM   13  C   UNL     1     -10.290  19.624  67.374  1.00  0.00    -0.581 A  
HETATM   14  C   UNL     1      -9.938  18.577  68.228  1.00  0.00    -0.409 A  
HETATM   15  C   UNL     1     -10.006  17.241  67.803  1.00  0.00    -0.301 A  
HETATM   16  C   UNL     1     -10.452  16.968  66.498  1.00  0.00    -0.250 A  
ENDBRANCH   7   8
ENDBRANCH   2   7
TORSDOF 2
ENDMDL
MODEL        6
REMARK 921   NORMALIZED FREE ENERGY PREDICTED BY IDOCK:   -5.58 KCAL/MOL
REMARK 922        TOTAL FREE ENERGY PREDICTED BY IDOCK:   -6.63 KCAL/MOL
REMARK 923 INTER-LIGAND FREE ENERGY PREDICTED BY IDOCK:   -6.26 KCAL/MOL
REMARK 924 INTRA-LIGAND FREE ENERGY PREDICTED BY IDOCK:   -0.37 KCAL/MOL
REMARK 927      BINDING AFFINITY PREDICTED BY RF-SCORE:    0.00 PKD
ROOT
HETATM    1  N   UNL     1     -12.304  13.614  63.147  1.00  0.00    -1.076 N  
HETATM    2  S   UNL     1     -12.227  14.665  64.462  1.00  0.00    -0.374 S  
HETATM    3  H1  UNL     1     -12.310  12.680  63.558  1.00  0.00     0.000 HD 
HETATM    4  H2  UNL     1     -12.337  13.858  62.158  1.00  0.00     0.000 HD 
HETATM    5  O   UNL     1     -12.218  15.986  63.881  1.00  0.00    -0.883 OA 
HETATM    6  O   UNL     1     -13.294  14.209  65.324  1.00  0.00    -0.715 OA 
ENDROOT
BRANCH   2   7
HETATM    7  C   UNL     1     -10.627  14.255  65.168  1.00  0.00    -0.406 C  
BRANCH   7   8
HETATM    8  C   UNL     1     -10.596  12.900  65.772  1.00  0.00    -0.275 A  
HETATM    9  N   UNL     1     -10.207  11.858  65.017  1.00  0.00    -0.269 NA 
HETATM   10  O   UNL     1     -10.308  10.742  65.827  1.00  0.00    -0.251 OA 
HETATM   11  C   UNL     1     -10.777  11.105  67.047  1.00  0.00    -0.268 A  
HETATM   12  C   UNL     1     -11.011  10.252  68.123  1.00  0.00    -0.328 A  
HETATM   13  C   UNL     1     -11.497  10.845  69.292  1.00  0.00    -0.372 A  
HETATM   14  C   UNL     1     -11.740  12.220  69.355  1.00  0.00    -0.392 A  
HETATM   15  C   UNL     1     -11.499  13.048  68.248  1.00  0.00    -0.347 A  
HETATM   16  C   UNL     1     -10.991  12.474  67.070  1.00  0.00    -0.306 A  
ENDBRANCH   7   8
ENDBRANCH   2   7
TORSDOF 2
ENDMDL
MODEL        7
REMARK 921   NORMALIZED FREE ENERGY PREDICTED BY IDOCK:   -5.58 KCAL/MOL
REMARK 922        TOTAL FREE ENERGY PREDICTED BY IDOCK:   -6.63 KCAL/MOL
REMARK 923 INTER-LIGAND FREE ENERGY PREDICTED BY IDOCK:   -6.40 KCAL/MOL
REMARK 924 INTRA-LIGAND FREE ENERGY PREDICTED BY IDOCK:   -0.22 KCAL/MOL
REMARK 927      BINDING AFFINITY PREDICTED BY RF-SCORE:    0.00 PKD
ROOT
HETATM    1  N   UNL     1     -12.037  14.589  63.732  1.00  0.00    -0.956 N  
HETATM    2  S   UNL     1     -12.647  13.420  64.781  1.00  0.00    -0.266 S  
HETATM    3  H1  UNL     1     -11.324  14.106  63.187  1.00  0.00     0.000 HD 
HETATM    4  H2  UNL     1     -12.320  15.566  63.659  1.00  0.00     0.000 HD 
HETATM    5  O   UNL     1     -13.658  14.104  65.552  1.00  0.00    -0.568 OA 
HETATM    6  O   UNL     1     -12.964  12.312  63.908  1.00  0.00    -0.753 OA 
ENDROOT
BRANCH   2   7
HETATM    7  C   UNL     1     -11.209  13.040  65.785  1.00  0.00    -0.289 C  
BRANCH   7   8
HETATM    8  C   UNL     1     -11.565  12.584  67.152  1.00  0.00    -0.368 A  
HETATM    9  N   UNL     1     -11.839  11.284  67.354  1.00  0.00    -0.560 NA 
HETATM   10  O   UNL     1     -12.162  11.167  68.694  1.00  0.00    -0.582 OA 
HETATM   11  C   UNL     1     -12.109  12.387  69.283  1.00  0.00    -0.165 A  
HETATM   12  C   UNL     1     -12.374  12.663  70.622  1.00  0.00    -0.375 A  
HETATM   13  C   UNL     1     -12.258  14.000  71.017  1.00  0.00    -0.430 A  
HETATM   14  C   UNL     1     -11.904  14.992  70.100  1.00  0.00    -0.357 A  
HETATM   15  C   UNL     1     -11.651  14.679  68.756  1.00  0.00    -0.346 A  
HETATM   16  C   UNL     1     -11.743  13.338  68.344  1.00  0.00    -0.389 A  
ENDBRANCH   7   8
ENDBRANCH   2   7
TORSDOF 2
ENDMDL
MODEL        8
REMARK 921   NORMALIZED FREE ENERGY PREDICTED BY IDOCK:   -5.57 KCAL/MOL
REMARK 922        TOTAL FREE ENERGY PREDICTED BY IDOCK:   -6.62 KCAL/MOL
REMARK 923 INTER-LIGAND FREE ENERGY PREDICTED BY IDOCK:   -6.40 KCAL/MOL
REMARK 924 INTRA-LIGAND FREE ENERGY PREDICTED BY IDOCK:   -0.22 KCAL/MOL
REMARK 927      BINDING AFFINITY PREDICTED BY RF-SCORE:    0.00 PKD
ROOT
HETATM    1  N   UNL     1     -11.344  12.810  63.156  1.00  0.00    -0.757 N  
HETATM    2  S   UNL     1     -12.133  13.582  64.430  1.00  0.00    -0.416 S  
HETATM    3  H1  UNL     1     -11.058  11.907  63.534  1.00  0.00     0.000 HD 
HETATM    4  H2  UNL     1     -11.187  13.168  62.214  1.00  0.00     0.000 HD 
HETATM    5  O   UNL     1     -12.538  14.860  63.895  1.00  0.00    -0.831 OA 
HETATM    6  O   UNL     1     -13.090  12.598  64.883  1.00  0.00    -0.850 OA 
ENDROOT
BRANCH   2   7
HETATM    7  C   UNL     1     -10.806  13.768  65.626  1.00  0.00    -0.287 C  
BRANCH   7   8
HETATM    8  C   UNL     1     -11.300  13.870  67.021  1.00  0.00    -0.326 A  
HETATM    9  N   UNL     1     -11.589  15.082  67.524  1.00  0.00    -0.333 NA 
HETATM   10  O   UNL     1     -11.988  14.868  68.830  1.00  0.00    -0.305 OA 
HETATM   11  C   UNL     1     -11.914  13.545  69.118  1.00  0.00    -0.333 A  
HETATM   12  C   UNL     1     -12.233  12.952  70.337  1.00  0.00    -0.381 A  
HETATM   13  C   UNL     1     -12.082  11.563  70.411  1.00  0.00    -0.471 A  
HETATM   14  C   UNL     1     -11.624  10.829  69.314  1.00  0.00    -0.376 A  
HETATM   15  C   UNL     1     -11.304  11.461  68.103  1.00  0.00    -0.374 A  
HETATM   16  C   UNL     1     -11.468  12.854  68.002  1.00  0.00    -0.361 A  
ENDBRANCH   7   8
ENDBRANCH   2   7
TORSDOF 2
ENDMDL
MODEL        9
REMARK 921   NORMALIZED FREE ENERGY PREDICTED BY IDOCK:   -5.50 KCAL/MOL
REMARK 922        TOTAL FREE ENERGY PREDICTED BY IDOCK:   -6.54 KCAL/MOL
REMARK 923 INTER-LIGAND FREE ENERGY PREDICTED BY IDOCK:   -6.32 KCAL/MOL
REMARK 924 INTRA-LIGAND FREE ENERGY PREDICTED BY IDOCK:   -0.23 KCAL/MOL
REMARK 927      BINDING AFFINITY PREDICTED BY RF-SCORE:    0.00 PKD
ROOT
HETATM    1  N   UNL     1     -11.813  11.563  63.007  1.00  0.00    -0.897 N  
HETATM    2  S   UNL     1     -12.244  12.908  63.927  1.00  0.00    -0.448 S  
HETATM    3  H1  UNL     1     -11.609  10.834  63.690  1.00  0.00     0.000 HD 
HETATM    4  H2  UNL     1     -11.767  11.494  61.991  1.00  0.00     0.000 HD 
HETATM    5  O   UNL     1     -12.533  13.941  62.960  1.00  0.00    -0.689 OA 
HETATM    6  O   UNL     1     -13.249  12.395  64.830  1.00  0.00    -0.784 OA 
ENDROOT
BRANCH   2   7
HETATM    7  C   UNL     1     -10.719  13.253  64.810  1.00  0.00    -0.378 C  
BRANCH   7   8
HETATM    8  C   UNL     1     -10.890  14.270  65.877  1.00  0.00    -0.300 A  
HETATM    9  N   UNL     1     -10.539  15.542  65.628  1.00  0.00    -0.350 NA 
HETATM   10  O   UNL     1     -10.777  16.240  66.797  1.00  0.00    -0.293 OA 
HETATM   11  C   UNL     1     -11.242  15.391  67.748  1.00  0.00    -0.321 A  
HETATM   12  C   UNL     1     -11.588  15.731  69.053  1.00  0.00    -0.406 A  
HETATM   13  C   UNL     1     -12.046  14.689  69.866  1.00  0.00    -0.385 A  
HETATM   14  C   UNL     1     -12.134  13.382  69.381  1.00  0.00    -0.321 A  
HETATM   15  C   UNL     1     -11.769  13.074  68.061  1.00  0.00    -0.397 A  
HETATM   16  C   UNL     1     -11.325  14.111  67.222  1.00  0.00    -0.349 A  
ENDBRANCH   7   8
ENDBRANCH   2   7
TORSDOF 2
ENDMDL
MODEL       10
REMARK 921   NORMALIZED FREE ENERGY PREDICTED BY IDOCK:   -5.49 KCAL/MOL
REMARK 922        TOTAL FREE ENERGY PREDICTED BY IDOCK:   -6.52 KCAL/MOL
REMARK 923 INTER-LIGAND FREE ENERGY PREDICTED BY IDOCK:   -6.14 KCAL/MOL
REMARK 924 INTRA-LIGAND FREE ENERGY PREDICTED BY IDOCK:   -0.38 KCAL/MOL
REMARK 927      BINDING AFFINITY PREDICTED BY RF-SCORE:    0.00 PKD
ROOT
HETATM    1  N   UNL     1     -11.999  15.457  63.837  1.00  0.00    -0.972 N  
HETATM    2  S   UNL     1     -11.937  13.934  64.556  1.00  0.00    -0.452 S  
HETATM    3  H1  UNL     1     -11.114  15.546  63.337  1.00  0.00     0.000 HD 
HETATM    4  H2  UNL     1     -12.755  16.139  63.889  1.00  0.00     0.000 HD 
HETATM    5  O   UNL     1     -13.189  13.807  65.263  1.00  0.00    -0.755 OA 
HETATM    6  O   UNL     1     -11.576  13.057  63.466  1.00  0.00    -0.467 OA 
ENDROOT
BRANCH   2   7
HETATM    7  C   UNL     1     -10.563  14.121  65.696  1.00  0.00    -0.310 C  
BRANCH   7   8
HETATM    8  C   UNL     1     -10.913  14.928  66.892  1.00  0.00    -0.327 A  
HETATM    9  N   UNL     1     -10.770  16.263  66.842  1.00  0.00    -0.267 NA 
HETATM   10  O   UNL     1     -11.136  16.733  68.090  1.00  0.00    -0.363 OA 
HETATM   11  C   UNL     1     -11.469  15.688  68.889  1.00  0.00    -0.361 A  
HETATM   12  C   UNL     1     -11.886  15.772  70.215  1.00  0.00    -0.369 A  
HETATM   13  C   UNL     1     -12.180  14.561  70.852  1.00  0.00    -0.409 A  
HETATM   14  C   UNL     1     -12.045  13.344  70.180  1.00  0.00    -0.415 A  
HETATM   15  C   UNL     1     -11.616  13.297  68.845  1.00  0.00    -0.357 A  
HETATM   16  C   UNL     1     -11.335  14.504  68.182  1.00  0.00    -0.319 A  
ENDBRANCH   7   8
ENDBRANCH   2   7
TORSDOF 2
ENDMDL
MODEL       11
REMARK 921   NORMALIZED FREE ENERGY PREDICTED BY IDOCK:   -5.46 KCAL/MOL
REMARK 922        TOTAL FREE ENERGY PREDICTED BY IDOCK:   -6.50 KCAL/MOL
REMARK 923 INTER-LIGAND FREE ENERGY PREDICTED BY IDOCK:   -6.11 KCAL/MOL
REMARK 924 INTRA-LIGAND FREE ENERGY PREDICTED BY IDOCK:   -0.39 KCAL/MOL
REMARK 927      BINDING AFFINITY PREDICTED BY RF-SCORE:    0.00 PKD
ROOT
HETATM    1  N   UNL     1     -10.286  14.132  64.389  1.00  0.00    -0.565 N  
HETATM    2  S   UNL     1     -11.527  15.135  64.931  1.00  0.00    -0.330 S  
HETATM    3  H1  UNL     1     -10.270  13.354  65.048  1.00  0.00     0.000 HD 
HETATM    4  H2  UNL     1      -9.684  14.272  63.578  1.00  0.00     0.000 HD 
HETATM    5  O   UNL     1     -11.550  16.235  63.997  1.00  0.00    -0.953 OA 
HETATM    6  O   UNL     1     -12.647  14.235  65.089  1.00  0.00    -0.513 OA 
ENDROOT
BRANCH   2   7
HETATM    7  C   UNL     1     -10.906  15.655  66.533  1.00  0.00    -0.260 C  
BRANCH   7   8
HETATM    8  C   UNL     1      -9.872  16.714  66.433  1.00  0.00    -0.292 A  
HETATM    9  N   UNL     1      -8.692  16.422  65.862  1.00  0.00    -0.440 NA 
HETATM   10  O   UNL     1      -7.934  17.576  65.939  1.00  0.00    -0.527 OA 
HETATM   11  C   UNL     1      -8.642  18.543  66.575  1.00  0.00    -0.276 A  
HETATM   12  C   UNL     1      -8.204  19.838  66.840  1.00  0.00    -0.342 A  
HETATM   13  C   UNL     1      -9.104  20.673  67.510  1.00  0.00    -0.353 A  
HETATM   14  C   UNL     1     -10.365  20.211  67.894  1.00  0.00    -0.459 A  
HETATM   15  C   UNL     1     -10.770  18.897  67.617  1.00  0.00    -0.469 A  
HETATM   16  C   UNL     1      -9.888  18.048  66.926  1.00  0.00    -0.330 A  
ENDBRANCH   7   8
ENDBRANCH   2   7
TORSDOF 2
ENDMDL
MODEL       12
REMARK 921   NORMALIZED FREE ENERGY PREDICTED BY IDOCK:   -5.43 KCAL/MOL
REMARK 922        TOTAL FREE ENERGY PREDICTED BY IDOCK:   -6.46 KCAL/MOL
REMARK 923 INTER-LIGAND FREE ENERGY PREDICTED BY IDOCK:   -6.20 KCAL/MOL
REMARK 924 INTRA-LIGAND FREE ENERGY PREDICTED BY IDOCK:   -0.26 KCAL/MOL
REMARK 927      BINDING AFFINITY PREDICTED BY RF-SCORE:    0.00 PKD
ROOT
HETATM    1  N   UNL     1     -11.345  12.705  63.094  1.00  0.00    -0.769 N  
HETATM    2  S   UNL     1     -12.280  13.398  64.312  1.00  0.00    -0.372 S  
HETATM    3  H1  UNL     1     -11.161  11.755  63.413  1.00  0.00     0.000 HD 
HETATM    4  H2  UNL     1     -11.032  13.141  62.227  1.00  0.00     0.000 HD 
HETATM    5  O   UNL     1     -12.541  14.744  63.859  1.00  0.00    -0.834 OA 
HETATM    6  O   UNL     1     -13.339  12.436  64.517  1.00  0.00    -0.800 OA 
ENDROOT
BRANCH   2   7
HETATM    7  C   UNL     1     -11.142  13.389  65.700  1.00  0.00    -0.285 C  
BRANCH   7   8
HETATM    8  C   UNL     1     -11.220  12.141  66.500  1.00  0.00    -0.328 A  
HETATM    9  N   UNL     1     -11.969  12.128  67.615  1.00  0.00    -0.543 NA 
HETATM   10  O   UNL     1     -11.825  10.863  68.156  1.00  0.00    -0.564 OA 
HETATM   11  C   UNL     1     -10.978  10.134  67.388  1.00  0.00    -0.229 A  
HETATM   12  C   UNL     1     -10.590   8.816  67.620  1.00  0.00    -0.281 A  
HETATM   13  C   UNL     1      -9.703   8.257  66.694  1.00  0.00    -0.321 A  
HETATM   14  C   UNL     1      -9.234   9.000  65.608  1.00  0.00    -0.288 A  
HETATM   15  C   UNL     1      -9.641  10.328  65.409  1.00  0.00    -0.310 A  
HETATM   16  C   UNL     1     -10.547  10.902  66.318  1.00  0.00    -0.276 A  
ENDBRANCH   7   8
ENDBRANCH   2   7
TORSDOF 2
ENDMDL
MODEL       13
REMARK 921   NORMALIZED FREE ENERGY PREDICTED BY IDOCK:   -5.42 KCAL/MOL
REMARK 922        TOTAL FREE ENERGY PREDICTED BY IDOCK:   -6.46 KCAL/MOL
REMARK 923 INTER-LIGAND FREE ENERGY PREDICTED BY IDOCK:   -6.21 KCAL/MOL
REMARK 924 INTRA-LIGAND FREE ENERGY PREDICTED BY IDOCK:   -0.25 KCAL/MOL
REMARK 927      BINDING AFFINITY PREDICTED BY RF-SCORE:    0.00 PKD
ROOT
HETATM    1  N   UNL     1     -12.246  13.495  63.170  1.00  0.00    -0.999 N  
HETATM    2  S   UNL     1     -12.284  14.554  64.481  1.00  0.00    -0.401 S  
HETATM    3  H1  UNL     1     -11.999  12.591  63.571  1.00  0.00     0.000 HD 
HETATM    4  H2  UNL     1     -12.429  13.712  62.190  1.00  0.00     0.000 HD 
HETATM    5  O   UNL     1     -12.634  15.834  63.913  1.00  0.00    -0.705 OA 
HETATM    6  O   UNL     1     -13.131  13.879  65.438  1.00  0.00    -0.752 OA 
ENDROOT
BRANCH   2   7
HETATM    7  C   UNL     1     -10.574  14.528  65.024  1.00  0.00    -0.437 C  
BRANCH   7   8
HETATM    8  C   UNL     1     -10.374  15.208  66.329  1.00  0.00    -0.294 A  
HETATM    9  N   UNL     1     -10.200  14.462  67.432  1.00  0.00    -0.246 NA 
HETATM   10  O   UNL     1     -10.074  15.356  68.480  1.00  0.00    -0.206 OA 
HETATM   11  C   UNL     1     -10.198  16.624  68.014  1.00  0.00    -0.280 A  
HETATM   12  C   UNL     1     -10.129  17.787  68.777  1.00  0.00    -0.381 A  
HETATM   13  C   UNL     1     -10.285  18.993  68.086  1.00  0.00    -0.472 A  
HETATM   14  C   UNL     1     -10.508  19.009  66.707  1.00  0.00    -0.510 A  
HETATM   15  C   UNL     1     -10.578  17.816  65.971  1.00  0.00    -0.229 A  
HETATM   16  C   UNL     1     -10.403  16.594  66.644  1.00  0.00    -0.296 A  
ENDBRANCH   7   8
ENDBRANCH   2   7
TORSDOF 2
ENDMDL
MODEL       14
REMARK 921   NORMALIZED FREE ENERGY PREDICTED BY IDOCK:   -5.38 KCAL/MOL
REMARK 922        TOTAL FREE ENERGY PREDICTED BY IDOCK:   -6.41 KCAL/MOL
REMARK 923 INTER-LIGAND FREE ENERGY PREDICTED BY IDOCK:   -6.22 KCAL/MOL
REMARK 924 INTRA-LIGAND FREE ENERGY PREDICTED BY IDOCK:   -0.19 KCAL/MOL
REMARK 927      BINDING AFFINITY PREDICTED BY RF-SCORE:    0.00 PKD
ROOT
HETATM    1  N   UNL     1      -9.100  17.826  68.667  1.00  0.00    -0.283 N  
HETATM    2  S   UNL     1     -10.385  17.600  67.601  1.00  0.00    -0.378 S  
HETATM    3  H1  UNL     1      -8.465  18.459  68.181  1.00  0.00     0.000 HD 
HETATM    4  H2  UNL     1      -8.983  17.420  69.595  1.00  0.00     0.000 HD 
HETATM    5  O   UNL     1     -11.284  16.704  68.289  1.00  0.00    -0.349 OA 
HETATM    6  O   UNL     1     -10.767  18.946  67.238  1.00  0.00    -0.445 OA 
ENDROOT
BRANCH   2   7
HETATM    7  C   UNL     1      -9.579  16.779  66.222  1.00  0.00    -0.289 C  
BRANCH   7   8
HETATM    8  C   UNL     1     -10.543  16.158  65.279  1.00  0.00    -0.369 A  
HETATM    9  N   UNL     1     -11.368  16.951  64.575  1.00  0.00    -1.002 NA 
HETATM   10  O   UNL     1     -12.158  16.103  63.820  1.00  0.00    -0.946 OA 
HETATM   11  C   UNL     1     -11.828  14.815  64.087  1.00  0.00    -0.214 A  
HETATM   12  C   UNL     1     -12.410  13.685  63.519  1.00  0.00    -0.265 A  
HETATM   13  C   UNL     1     -11.911  12.449  63.943  1.00  0.00    -0.572 A  
HETATM   14  C   UNL     1     -10.891  12.372  64.894  1.00  0.00    -0.333 A  
HETATM   15  C   UNL     1     -10.333  13.532  65.452  1.00  0.00    -0.329 A  
HETATM   16  C   UNL     1     -10.806  14.785  65.024  1.00  0.00    -0.440 A  
ENDBRANCH   7   8
ENDBRANCH   2   7
TORSDOF 2
ENDMDL
MODEL       15
REMARK 921   NORMALIZED FREE ENERGY PREDICTED BY IDOCK:   -5.33 KCAL/MOL
REMARK 922        TOTAL FREE ENERGY PREDICTED BY IDOCK:   -6.35 KCAL/MOL
REMARK 923 INTER-LIGAND FREE ENERGY PREDICTED BY IDOCK:   -6.17 KCAL/MOL
REMARK 924 INTRA-LIGAND FREE ENERGY PREDICTED BY IDOCK:   -0.18 KCAL/MOL
REMARK 927      BINDING AFFINITY PREDICTED BY RF-SCORE:    0.00 PKD
ROOT
HETATM    1  N   UNL     1     -10.230  13.635  64.427  1.00  0.00    -0.682 N  
HETATM    2  S   UNL     1     -10.213  13.645  66.112  1.00  0.00    -0.310 S  
HETATM    3  H1  UNL     1      -9.271  13.416  64.157  1.00  0.00     0.000 HD 
HETATM    4  H2  UNL     1     -11.025  13.808  63.813  1.00  0.00     0.000 HD 
HETATM    5  O   UNL     1     -11.570  13.953  66.495  1.00  0.00    -0.337 OA 
HETATM    6  O   UNL     1      -9.582  12.390  66.454  1.00  0.00    -0.237 OA 
ENDROOT
BRANCH   2   7
HETATM    7  C   UNL     1      -9.111  15.019  66.461  1.00  0.00    -0.286 C  
BRANCH   7   8
HETATM    8  C   UNL     1      -9.725  16.338  66.166  1.00  0.00    -0.329 A  
HETATM    9  N   UNL     1     -10.496  16.468  65.074  1.00  0.00    -0.655 NA 
HETATM   10  O   UNL     1     -10.895  17.792  65.045  1.00  0.00    -0.774 OA 
HETATM   11  C   UNL     1     -10.346  18.456  66.094  1.00  0.00    -0.407 A  
HETATM   12  C   UNL     1     -10.520  19.805  66.390  1.00  0.00    -0.618 A  
HETATM   13  C   UNL     1      -9.857  20.282  67.526  1.00  0.00    -0.576 A  
HETATM   14  C   UNL     1      -9.061  19.436  68.303  1.00  0.00    -0.397 A  
HETATM   15  C   UNL     1      -8.903  18.082  67.969  1.00  0.00    -0.278 A  
HETATM   16  C   UNL     1      -9.577  17.580  66.843  1.00  0.00    -0.279 A  
ENDBRANCH   7   8
ENDBRANCH   2   7
TORSDOF 2
ENDMDL
MODEL       16
REMARK 921   NORMALIZED FREE ENERGY PREDICTED BY IDOCK:   -5.29 KCAL/MOL
REMARK 922        TOTAL FREE ENERGY PREDICTED BY IDOCK:   -6.30 KCAL/MOL
REMARK 923 INTER-LIGAND FREE ENERGY PREDICTED BY IDOCK:   -6.08 KCAL/MOL
REMARK 924 INTRA-LIGAND FREE ENERGY PREDICTED BY IDOCK:   -0.22 KCAL/MOL
REMARK 927      BINDING AFFINITY PREDICTED BY RF-SCORE:    0.00 PKD
ROOT
HETATM    1  N   UNL     1      -8.549  20.392  66.195  1.00  0.00    -0.560 N  
HETATM    2  S   UNL     1      -8.290  18.807  66.709  1.00  0.00    -0.290 S  
HETATM    3  H1  UNL     1      -8.972  20.861  66.996  1.00  0.00     0.000 HD 
HETATM    4  H2  UNL     1      -8.330  20.793  65.284  1.00  0.00     0.000 HD 
HETATM    5  O   UNL     1      -7.690  18.144  65.575  1.00  0.00    -0.507 OA 
HETATM    6  O   UNL     1      -7.594  18.966  67.965  1.00  0.00    -0.253 OA 
ENDROOT
BRANCH   2   7
HETATM    7  C   UNL     1      -9.968  18.232  66.986  1.00  0.00    -0.342 C  
BRANCH   7   8
HETATM    8  C   UNL     1     -10.401  17.219  65.991  1.00  0.00    -0.305 A  
HETATM    9  N   UNL     1     -11.020  17.629  64.872  1.00  0.00    -0.765 NA 
HETATM   10  O   UNL     1     -11.328  16.481  64.164  1.00  0.00    -1.060 OA 
HETATM   11  C   UNL     1     -10.921  15.392  64.864  1.00  0.00    -0.437 A  
HETATM   12  C   UNL     1     -11.063  14.064  64.470  1.00  0.00    -0.360 A  
HETATM   13  C   UNL     1     -10.569  13.098  65.352  1.00  0.00    -0.311 A  
HETATM   14  C   UNL     1      -9.977  13.464  66.563  1.00  0.00    -0.286 A  
HETATM   15  C   UNL     1      -9.856  14.813  66.931  1.00  0.00    -0.248 A  
HETATM   16  C   UNL     1     -10.329  15.800  66.050  1.00  0.00    -0.356 A  
ENDBRANCH   7   8
ENDBRANCH   2   7
TORSDOF 2
ENDMDL
MODEL       17
REMARK 921   NORMALIZED FREE ENERGY PREDICTED BY IDOCK:   -5.24 KCAL/MOL
REMARK 922        TOTAL FREE ENERGY PREDICTED BY IDOCK:   -6.25 KCAL/MOL
REMARK 923 INTER-LIGAND FREE ENERGY PREDICTED BY IDOCK:   -5.87 KCAL/MOL
REMARK 924 INTRA-LIGAND FREE ENERGY PREDICTED BY IDOCK:   -0.38 KCAL/MOL
REMARK 927      BINDING AFFINITY PREDICTED BY RF-SCORE:    0.00 PKD
ROOT
HETATM    1  N   UNL     1     -12.395  14.563  66.955  1.00  0.00    -0.522 N  
HETATM    2  S   UNL     1     -11.441  13.183  66.801  1.00  0.00    -0.362 S  
HETATM    3  H1  UNL     1     -11.797  15.245  67.422  1.00  0.00     0.000 HD 
HETATM    4  H2  UNL     1     -13.359  14.690  66.648  1.00  0.00     0.000 HD 
HETATM    5  O   UNL     1     -12.288  12.219  66.139  1.00  0.00    -0.588 OA 
HETATM    6  O   UNL     1     -10.222  13.677  66.202  1.00  0.00    -0.289 OA 
ENDROOT
BRANCH   2   7
HETATM    7  C   UNL     1     -11.163  12.734  68.517  1.00  0.00    -0.279 C  
BRANCH   7   8
HETATM    8  C   UNL     1     -11.305  13.885  69.443  1.00  0.00    -0.258 A  
HETATM    9  N   UNL     1     -10.547  14.977  69.247  1.00  0.00    -0.240 NA 
HETATM   10  O   UNL     1     -10.871  15.854  70.266  1.00  0.00    -0.316 OA 
HETATM   11  C   UNL     1     -11.794  15.284  71.080  1.00  0.00    -0.348 A  
HETATM   12  C   UNL     1     -12.358  15.866  72.214  1.00  0.00    -0.567 A  
HETATM   13  C   UNL     1     -13.295  15.094  72.907  1.00  0.00    -0.603 A  
HETATM   14  C   UNL     1     -13.628  13.807  72.477  1.00  0.00    -0.680 A  
HETATM   15  C   UNL     1     -13.035  13.250  71.334  1.00  0.00    -0.398 A  
HETATM   16  C   UNL     1     -12.105  14.018  70.611  1.00  0.00    -0.424 A  
ENDBRANCH   7   8
ENDBRANCH   2   7
TORSDOF 2
ENDMDL
MODEL       18
REMARK 921   NORMALIZED FREE ENERGY PREDICTED BY IDOCK:   -5.16 KCAL/MOL
REMARK 922        TOTAL FREE ENERGY PREDICTED BY IDOCK:   -6.16 KCAL/MOL
REMARK 923 INTER-LIGAND FREE ENERGY PREDICTED BY IDOCK:   -5.94 KCAL/MOL
REMARK 924 INTRA-LIGAND FREE ENERGY PREDICTED BY IDOCK:   -0.22 KCAL/MOL
REMARK 927      BINDING AFFINITY PREDICTED BY RF-SCORE:    0.00 PKD
ROOT
HETATM    1  N   UNL     1     -11.557  12.547  62.966  1.00  0.00    -0.723 N  
HETATM    2  S   UNL     1     -12.196  13.338  64.310  1.00  0.00    -0.377 S  
HETATM    3  H1  UNL     1     -11.402  11.588  63.275  1.00  0.00     0.000 HD 
HETATM    4  H2  UNL     1     -11.367  12.942  62.045  1.00  0.00     0.000 HD 
HETATM    5  O   UNL     1     -12.415  14.696  63.871  1.00  0.00    -0.813 OA 
HETATM    6  O   UNL     1     -13.281  12.479  64.726  1.00  0.00    -0.839 OA 
ENDROOT
BRANCH   2   7
HETATM    7  C   UNL     1     -10.834  13.243  65.475  1.00  0.00    -0.284 C  
BRANCH   7   8
HETATM    8  C   UNL     1     -10.929  14.256  66.555  1.00  0.00    -0.316 A  
HETATM    9  N   UNL     1     -11.848  14.094  67.522  1.00  0.00    -0.387 NA 
HETATM   10  O   UNL     1     -11.723  15.191  68.354  1.00  0.00    -0.330 OA 
HETATM   11  C   UNL     1     -10.758  16.016  67.878  1.00  0.00    -0.316 A  
HETATM   12  C   UNL     1     -10.354  17.220  68.450  1.00  0.00    -0.366 A  
HETATM   13  C   UNL     1      -9.335  17.912  67.787  1.00  0.00    -0.262 A  
HETATM   14  C   UNL     1      -8.773  17.411  66.609  1.00  0.00    -0.286 A  
HETATM   15  C   UNL     1      -9.210  16.197  66.058  1.00  0.00    -0.363 A  
HETATM   16  C   UNL     1     -10.219  15.477  66.720  1.00  0.00    -0.282 A  
ENDBRANCH   7   8
ENDBRANCH   2   7
TORSDOF 2
ENDMDL
MODEL       19
REMARK 921   NORMALIZED FREE ENERGY PREDICTED BY IDOCK:   -5.13 KCAL/MOL
REMARK 922        TOTAL FREE ENERGY PREDICTED BY IDOCK:   -6.13 KCAL/MOL
REMARK 923 INTER-LIGAND FREE ENERGY PREDICTED BY IDOCK:   -5.72 KCAL/MOL
REMARK 924 INTRA-LIGAND FREE ENERGY PREDICTED BY IDOCK:   -0.41 KCAL/MOL
REMARK 927      BINDING AFFINITY PREDICTED BY RF-SCORE:    0.00 PKD
ROOT
HETATM    1  N   UNL     1     -10.011  12.125  68.839  1.00  0.00    -0.422 N  
HETATM    2  S   UNL     1     -11.670  12.003  68.571  1.00  0.00    -0.321 S  
HETATM    3  H1  UNL     1      -9.923  12.667  69.698  1.00  0.00     0.000 HD 
HETATM    4  H2  UNL     1      -9.259  11.739  68.267  1.00  0.00     0.000 HD 
HETATM    5  O   UNL     1     -11.794  11.235  67.355  1.00  0.00    -0.590 OA 
HETATM    6  O   UNL     1     -12.185  11.532  69.836  1.00  0.00    -0.290 OA 
ENDROOT
BRANCH   2   7
HETATM    7  C   UNL     1     -12.126  13.719  68.305  1.00  0.00    -0.279 C  
BRANCH   7   8
HETATM    8  C   UNL     1     -11.779  14.592  69.454  1.00  0.00    -0.318 A  
HETATM    9  N   UNL     1     -10.596  15.227  69.456  1.00  0.00    -0.253 NA 
HETATM   10  O   UNL     1     -10.540  15.927  70.648  1.00  0.00    -0.208 OA 
HETATM   11  C   UNL     1     -11.668  15.693  71.365  1.00  0.00    -0.428 A  
HETATM   12  C   UNL     1     -11.966  16.224  72.618  1.00  0.00    -0.644 A  
HETATM   13  C   UNL     1     -13.192  15.846  73.176  1.00  0.00    -0.692 A  
HETATM   14  C   UNL     1     -14.051  14.974  72.504  1.00  0.00    -0.503 A  
HETATM   15  C   UNL     1     -13.714  14.452  71.246  1.00  0.00    -0.364 A  
HETATM   16  C   UNL     1     -12.496  14.836  70.658  1.00  0.00    -0.407 A  
ENDBRANCH   7   8
ENDBRANCH   2   7
TORSDOF 2
ENDMDL
MODEL       20
REMARK 921   NORMALIZED FREE ENERGY PREDICTED BY IDOCK:   -5.12 KCAL/MOL
REMARK 922        TOTAL FREE ENERGY PREDICTED BY IDOCK:   -6.12 KCAL/MOL
REMARK 923 INTER-LIGAND FREE ENERGY PREDICTED BY IDOCK:   -5.75 KCAL/MOL
REMARK 924 INTRA-LIGAND FREE ENERGY PREDICTED BY IDOCK:   -0.37 KCAL/MOL
REMARK 927      BINDING AFFINITY PREDICTED BY RF-SCORE:    0.00 PKD
ROOT
HETATM    1  N   UNL     1     -12.304  14.139  63.086  1.00  0.00    -1.046 N  
HETATM    2  S   UNL     1     -12.005  12.899  64.188  1.00  0.00    -0.458 S  
HETATM    3  H1  UNL     1     -11.499  14.760  63.166  1.00  0.00     0.000 HD 
HETATM    4  H2  UNL     1     -13.112  14.245  62.474  1.00  0.00     0.000 HD 
HETATM    5  O   UNL     1     -13.145  12.020  64.074  1.00  0.00    -0.660 OA 
HETATM    6  O   UNL     1     -10.665  12.469  63.861  1.00  0.00    -0.377 OA 
ENDROOT
BRANCH   2   7
HETATM    7  C   UNL     1     -12.020  13.784  65.750  1.00  0.00    -0.399 C  
BRANCH   7   8
HETATM    8  C   UNL     1     -10.999  14.859  65.812  1.00  0.00    -0.345 A  
HETATM    9  N   UNL     1     -11.151  15.947  65.039  1.00  0.00    -0.386 NA 
HETATM   10  O   UNL     1     -10.049  16.746  65.284  1.00  0.00    -0.577 OA 
HETATM   11  C   UNL     1      -9.231  16.132  66.175  1.00  0.00    -0.347 A  
HETATM   12  C   UNL     1      -8.025  16.632  66.660  1.00  0.00    -0.315 A  
HETATM   13  C   UNL     1      -7.343  15.826  67.578  1.00  0.00    -0.205 A  
HETATM   14  C   UNL     1      -7.854  14.585  67.966  1.00  0.00    -0.138 A  
HETATM   15  C   UNL     1      -9.069  14.110  67.451  1.00  0.00    -0.199 A  
HETATM   16  C   UNL     1      -9.780  14.914  66.543  1.00  0.00    -0.294 A  
ENDBRANCH   7   8
ENDBRANCH   2   7
TORSDOF 2
ENDMDL
MODEL       21
REMARK 921   NORMALIZED FREE ENERGY PREDICTED BY IDOCK:   -5.12 KCAL/MOL
REMARK 922        TOTAL FREE ENERGY PREDICTED BY IDOCK:   -6.11 KCAL/MOL
REMARK 923 INTER-LIGAND FREE ENERGY PREDICTED BY IDOCK:   -5.72 KCAL/MOL
REMARK 924 INTRA-LIGAND FREE ENERGY PREDICTED BY IDOCK:   -0.39 KCAL/MOL
REMARK 927      BINDING AFFINITY PREDICTED BY RF-SCORE:    0.00 PKD
ROOT
HETATM    1  N   UNL     1     -10.228  13.566  64.273  1.00  0.00    -0.672 N  
HETATM    2  S   UNL     1     -10.308  14.744  65.475  1.00  0.00    -0.393 S  
HETATM    3  H1  UNL     1     -11.016  13.766  63.657  1.00  0.00     0.000 HD 
HETATM    4  H2  UNL     1      -9.541  12.818  64.181  1.00  0.00     0.000 HD 
HETATM    5  O   UNL     1      -9.192  14.461  66.346  1.00  0.00    -0.267 OA 
HETATM    6  O   UNL     1     -10.412  15.980  64.734  1.00  0.00    -0.564 OA 
ENDROOT
BRANCH   2   7
HETATM    7  C   UNL     1     -11.869  14.352  66.271  1.00  0.00    -0.379 C  
BRANCH   7   8
HETATM    8  C   UNL     1     -11.809  13.105  67.074  1.00  0.00    -0.379 A  
HETATM    9  N   UNL     1     -11.608  11.935  66.445  1.00  0.00    -0.501 NA 
HETATM   10  O   UNL     1     -11.632  10.965  67.430  1.00  0.00    -0.509 OA 
HETATM   11  C   UNL     1     -11.870  11.544  68.634  1.00  0.00    -0.318 A  
HETATM   12  C   UNL     1     -11.965  10.883  69.856  1.00  0.00    -0.430 A  
HETATM   13  C   UNL     1     -12.217  11.683  70.976  1.00  0.00    -0.336 A  
HETATM   14  C   UNL     1     -12.372  13.066  70.854  1.00  0.00    -0.376 A  
HETATM   15  C   UNL     1     -12.276  13.697  69.604  1.00  0.00    -0.326 A  
HETATM   16  C   UNL     1     -12.004  12.913  68.469  1.00  0.00    -0.272 A  
ENDBRANCH   7   8
ENDBRANCH   2   7
TORSDOF 2
ENDMDL
MODEL       22
REMARK 921   NORMALIZED FREE ENERGY PREDICTED BY IDOCK:   -5.03 KCAL/MOL
REMARK 922        TOTAL FREE ENERGY PREDICTED BY IDOCK:   -6.02 KCAL/MOL
REMARK 923 INTER-LIGAND FREE ENERGY PREDICTED BY IDOCK:   -5.63 KCAL/MOL
REMARK 924 INTRA-LIGAND FREE ENERGY PREDICTED BY IDOCK:   -0.39 KCAL/MOL
REMARK 927      BINDING AFFINITY PREDICTED BY RF-SCORE:    0.00 PKD
ROOT
HETATM    1  N   UNL     1     -12.027  16.297  72.130  1.00  0.00    -0.582 N  
HETATM    2  S   UNL     1     -13.132  15.500  73.122  1.00  0.00    -0.579 S  
HETATM    3  H1  UNL     1     -12.598  16.877  71.515  1.00  0.00     0.000 HD 
HETATM    4  H2  UNL     1     -11.011  16.218  72.143  1.00  0.00     0.000 HD 
HETATM    5  O   UNL     1     -12.324  14.680  73.993  1.00  0.00    -0.474 OA 
HETATM    6  O   UNL     1     -13.969  16.566  73.625  1.00  0.00    -0.277 OA 
ENDROOT
BRANCH   2   7
HETATM    7  C   UNL     1     -14.034  14.497  71.937  1.00  0.00    -0.481 C  
BRANCH   7   8
HETATM    8  C   UNL     1     -13.141  13.673  71.084  1.00  0.00    -0.234 A  
HETATM    9  N   UNL     1     -12.533  14.247  70.033  1.00  0.00    -0.336 NA 
HETATM   10  O   UNL     1     -11.805  13.244  69.419  1.00  0.00    -0.300 OA 
HETATM   11  C   UNL     1     -11.996  12.074  70.080  1.00  0.00    -0.324 A  
HETATM   12  C   UNL     1     -11.428  10.846  69.752  1.00  0.00    -0.390 A  
HETATM   13  C   UNL     1     -11.764   9.766  70.575  1.00  0.00    -0.343 A  
HETATM   14  C   UNL     1     -12.634   9.929  71.656  1.00  0.00    -0.519 A  
HETATM   15  C   UNL     1     -13.193  11.181  71.953  1.00  0.00    -0.488 A  
HETATM   16  C   UNL     1     -12.852  12.283  71.150  1.00  0.00    -0.302 A  
ENDBRANCH   7   8
ENDBRANCH   2   7
TORSDOF 2
ENDMDL
MODEL       23
REMARK 921   NORMALIZED FREE ENERGY PREDICTED BY IDOCK:   -4.98 KCAL/MOL
REMARK 922        TOTAL FREE ENERGY PREDICTED BY IDOCK:   -5.95 KCAL/MOL
REMARK 923 INTER-LIGAND FREE ENERGY PREDICTED BY IDOCK:   -5.78 KCAL/MOL
REMARK 924 INTRA-LIGAND FREE ENERGY PREDICTED BY IDOCK:   -0.18 KCAL/MOL
REMARK 927      BINDING AFFINITY PREDICTED BY RF-SCORE:    0.00 PKD
ROOT
HETATM    1  N   UNL     1     -10.209  13.420  65.580  1.00  0.00    -0.290 N  
HETATM    2  S   UNL     1     -11.445  13.239  66.711  1.00  0.00    -0.368 S  
HETATM    3  H1  UNL     1      -9.635  12.583  65.684  1.00  0.00     0.000 HD 
HETATM    4  H2  UNL     1     -10.066  14.195  64.934  1.00  0.00     0.000 HD 
HETATM    5  O   UNL     1     -12.258  14.423  66.564  1.00  0.00    -0.424 OA 
HETATM    6  O   UNL     1     -11.959  11.914  66.445  1.00  0.00    -0.572 OA 
ENDROOT
BRANCH   2   7
HETATM    7  C   UNL     1     -10.535  13.263  68.258  1.00  0.00    -0.250 C  
BRANCH   7   8
HETATM    8  C   UNL     1     -11.377  12.903  69.427  1.00  0.00    -0.201 A  
HETATM    9  N   UNL     1     -11.567  11.606  69.718  1.00  0.00    -0.313 NA 
HETATM   10  O   UNL     1     -12.404  11.581  70.818  1.00  0.00    -0.374 OA 
HETATM   11  C   UNL     1     -12.735  12.849  71.167  1.00  0.00    -0.276 A  
HETATM   12  C   UNL     1     -13.563  13.219  72.224  1.00  0.00    -0.703 A  
HETATM   13  C   UNL     1     -13.769  14.591  72.402  1.00  0.00    -0.583 A  
HETATM   14  C   UNL     1     -13.175  15.524  71.549  1.00  0.00    -0.589 A  
HETATM   15  C   UNL     1     -12.352  15.115  70.489  1.00  0.00    -0.408 A  
HETATM   16  C   UNL     1     -12.117  13.741  70.306  1.00  0.00    -0.425 A  
ENDBRANCH   7   8
ENDBRANCH   2   7
TORSDOF 2
ENDMDL
MODEL       24
REMARK 921   NORMALIZED FREE ENERGY PREDICTED BY IDOCK:   -4.95 KCAL/MOL
REMARK 922        TOTAL FREE ENERGY PREDICTED BY IDOCK:   -5.93 KCAL/MOL
REMARK 923 INTER-LIGAND FREE ENERGY PREDICTED BY IDOCK:   -5.69 KCAL/MOL
REMARK 924 INTRA-LIGAND FREE ENERGY PREDICTED BY IDOCK:   -0.24 KCAL/MOL
REMARK 927      BINDING AFFINITY PREDICTED BY RF-SCORE:    0.00 PKD
ROOT
HETATM    1  N   UNL     1     -10.177  12.310  65.854  1.00  0.00    -0.244 N  
HETATM    2  S   UNL     1     -11.435  12.745  66.886  1.00  0.00    -0.360 S  
HETATM    3  H1  UNL     1      -9.592  11.681  66.404  1.00  0.00     0.000 HD 
HETATM    4  H2  UNL     1     -10.032  12.609  64.890  1.00  0.00     0.000 HD 
HETATM    5  O   UNL     1     -12.263  13.635  66.107  1.00  0.00    -0.417 OA 
HETATM    6  O   UNL     1     -11.921  11.478  67.383  1.00  0.00    -0.623 OA 
ENDROOT
BRANCH   2   7
HETATM    7  C   UNL     1     -10.560  13.635  68.177  1.00  0.00    -0.247 C  
BRANCH   7   8
HETATM    8  C   UNL     1     -11.472  14.229  69.186  1.00  0.00    -0.291 A  
HETATM    9  N   UNL     1     -11.684  15.555  69.172  1.00  0.00    -0.349 NA 
HETATM   10  O   UNL     1     -12.537  15.817  70.229  1.00  0.00    -0.384 OA 
HETATM   11  C   UNL     1     -12.814  14.662  70.886  1.00  0.00    -0.365 A  
HETATM   12  C   UNL     1     -13.635  14.532  72.004  1.00  0.00    -0.509 A  
HETATM   13  C   UNL     1     -13.780  13.241  72.521  1.00  0.00    -0.613 A  
HETATM   14  C   UNL     1     -13.120  12.155  71.941  1.00  0.00    -0.475 A  
HETATM   15  C   UNL     1     -12.294  12.324  70.819  1.00  0.00    -0.383 A  
HETATM   16  C   UNL     1     -12.152  13.611  70.272  1.00  0.00    -0.427 A  
ENDBRANCH   7   8
ENDBRANCH   2   7
TORSDOF 2
ENDMDL
MODEL       25
REMARK 921   NORMALIZED FREE ENERGY PREDICTED BY IDOCK:   -4.94 KCAL/MOL
REMARK 922        TOTAL FREE ENERGY PREDICTED BY IDOCK:   -5.91 KCAL/MOL
REMARK 923 INTER-LIGAND FREE ENERGY PREDICTED BY IDOCK:   -5.45 KCAL/MOL
REMARK 924 INTRA-LIGAND FREE ENERGY PREDICTED BY IDOCK:   -0.46 KCAL/MOL
REMARK 927      BINDING AFFINITY PREDICTED BY RF-SCORE:    0.00 PKD
ROOT
HETATM    1  N   UNL     1     -12.599  12.168  63.092  1.00  0.00    -0.819 N  
HETATM    2  S   UNL     1     -12.354  13.416  64.197  1.00  0.00    -0.291 S  
HETATM    3  H1  UNL     1     -12.441  11.313  63.624  1.00  0.00     0.000 HD 
HETATM    4  H2  UNL     1     -12.850  12.251  62.107  1.00  0.00     0.000 HD 
HETATM    5  O   UNL     1     -12.577  14.628  63.444  1.00  0.00    -0.574 OA 
HETATM    6  O   UNL     1     -13.183  13.044  65.321  1.00  0.00    -0.636 OA 
ENDROOT
BRANCH   2   7
HETATM    7  C   UNL     1     -10.616  13.214  64.601  1.00  0.00    -0.392 C  
BRANCH   7   8
HETATM    8  C   UNL     1     -10.238  11.796  64.823  1.00  0.00    -0.282 A  
HETATM    9  N   UNL     1      -9.711  11.095  63.806  1.00  0.00    -0.272 NA 
HETATM   10  O   UNL     1      -9.494   9.819  64.294  1.00  0.00    -0.263 OA 
HETATM   11  C   UNL     1      -9.911   9.748  65.583  1.00  0.00    -0.301 A  
HETATM   12  C   UNL     1      -9.854   8.623  66.401  1.00  0.00    -0.341 A  
HETATM   13  C   UNL     1     -10.342   8.776  67.703  1.00  0.00    -0.317 A  
HETATM   14  C   UNL     1     -10.864   9.997  68.137  1.00  0.00    -0.303 A  
HETATM   15  C   UNL     1     -10.913  11.109  67.282  1.00  0.00    -0.354 A  
HETATM   16  C   UNL     1     -10.409  10.980  65.976  1.00  0.00    -0.311 A  
ENDBRANCH   7   8
ENDBRANCH   2   7
TORSDOF 2
ENDMDL
MODEL       26
REMARK 921   NORMALIZED FREE ENERGY PREDICTED BY IDOCK:   -4.90 KCAL/MOL
REMARK 922        TOTAL FREE ENERGY PREDICTED BY IDOCK:   -5.86 KCAL/MOL
REMARK 923 INTER-LIGAND FREE ENERGY PREDICTED BY IDOCK:   -5.44 KCAL/MOL
REMARK 924 INTRA-LIGAND FREE ENERGY PREDICTED BY IDOCK:   -0.42 KCAL/MOL
REMARK 927      BINDING AFFINITY PREDICTED BY RF-SCORE:    0.00 PKD
ROOT
HETATM    1  N   UNL     1     -10.762  15.733  66.961  1.00  0.00    -0.317 N  
HETATM    2  S   UNL     1     -11.044  14.889  68.392  1.00  0.00    -0.287 S  
HETATM    3  H1  UNL     1     -11.671  16.113  66.698  1.00  0.00     0.000 HD 
HETATM    4  H2  UNL     1      -9.877  15.840  66.467  1.00  0.00     0.000 HD 
HETATM    5  O   UNL     1      -9.756  14.352  68.765  1.00  0.00    -0.218 OA 
HETATM    6  O   UNL     1     -11.748  15.844  69.217  1.00  0.00    -0.367 OA 
ENDROOT
BRANCH   2   7
HETATM    7  C   UNL     1     -12.155  13.591  67.842  1.00  0.00    -0.269 C  
BRANCH   7   8
HETATM    8  C   UNL     1     -12.100  13.370  66.375  1.00  0.00    -0.409 A  
HETATM    9  N   UNL     1     -12.909  14.086  65.577  1.00  0.00    -0.668 NA 
HETATM   10  O   UNL     1     -12.661  13.647  64.290  1.00  0.00    -0.640 OA 
HETATM   11  C   UNL     1     -11.731  12.659  64.317  1.00  0.00    -0.381 A  
HETATM   12  C   UNL     1     -11.231  11.973  63.213  1.00  0.00    -0.403 A  
HETATM   13  C   UNL     1     -10.273  10.988  63.474  1.00  0.00    -0.424 A  
HETATM   14  C   UNL     1      -9.861  10.714  64.781  1.00  0.00    -0.372 A  
HETATM   15  C   UNL     1     -10.392  11.421  65.870  1.00  0.00    -0.299 A  
HETATM   16  C   UNL     1     -11.341  12.428  65.627  1.00  0.00    -0.387 A  
ENDBRANCH   7   8
ENDBRANCH   2   7
TORSDOF 2
ENDMDL
MODEL       27
REMARK 921   NORMALIZED FREE ENERGY PREDICTED BY IDOCK:   -4.88 KCAL/MOL
REMARK 922        TOTAL FREE ENERGY PREDICTED BY IDOCK:   -5.85 KCAL/MOL
REMARK 923 INTER-LIGAND FREE ENERGY PREDICTED BY IDOCK:   -5.58 KCAL/MOL
REMARK 924 INTRA-LIGAND FREE ENERGY PREDICTED BY IDOCK:   -0.27 KCAL/MOL
REMARK 927      BINDING AFFINITY PREDICTED BY RF-SCORE:    0.00 PKD
ROOT
HETATM    1  N   UNL     1     -12.476  14.308  63.360  1.00  0.00    -1.101 N  
HETATM    2  S   UNL     1     -12.145  12.749  63.911  1.00  0.00    -0.510 S  
HETATM    3  H1  UNL     1     -11.687  14.870  63.679  1.00  0.00     0.000 HD 
HETATM    4  H2  UNL     1     -13.286  14.619  62.826  1.00  0.00     0.000 HD 
HETATM    5  O   UNL     1     -13.262  11.953  63.460  1.00  0.00    -0.676 OA 
HETATM    6  O   UNL     1     -10.794  12.508  63.458  1.00  0.00    -0.440 OA 
ENDROOT
BRANCH   2   7
HETATM    7  C   UNL     1     -12.184  12.973  65.692  1.00  0.00    -0.466 C  
BRANCH   7   8
HETATM    8  C   UNL     1     -10.858  13.330  66.256  1.00  0.00    -0.284 A  
HETATM    9  N   UNL     1     -10.146  12.388  66.894  1.00  0.00    -0.218 NA 
HETATM   10  O   UNL     1      -8.992  13.012  67.330  1.00  0.00    -0.185 OA 
HETATM   11  C   UNL     1      -9.023  14.322  66.980  1.00  0.00    -0.236 A  
HETATM   12  C   UNL     1      -8.036  15.267  67.250  1.00  0.00    -0.231 A  
HETATM   13  C   UNL     1      -8.277  16.566  66.793  1.00  0.00    -0.279 A  
HETATM   14  C   UNL     1      -9.456  16.883  66.113  1.00  0.00    -0.274 A  
HETATM   15  C   UNL     1     -10.432  15.906  65.864  1.00  0.00    -0.373 A  
HETATM   16  C   UNL     1     -10.199  14.590  66.298  1.00  0.00    -0.306 A  
ENDBRANCH   7   8
ENDBRANCH   2   7
TORSDOF 2
ENDMDL
MODEL       28
REMARK 921   NORMALIZED FREE ENERGY PREDICTED BY IDOCK:   -4.86 KCAL/MOL
REMARK 922        TOTAL FREE ENERGY PREDICTED BY IDOCK:   -5.83 KCAL/MOL
REMARK 923 INTER-LIGAND FREE ENERGY PREDICTED BY IDOCK:   -5.37 KCAL/MOL
REMARK 924 INTRA-LIGAND FREE ENERGY PREDICTED BY IDOCK:   -0.46 KCAL/MOL
REMARK 927      BINDING AFFINITY PREDICTED BY RF-SCORE:    0.00 PKD
ROOT
HETATM    1  N   UNL     1     -13.281  14.198  65.549  1.00  0.00    -0.638 N  
HETATM    2  S   UNL     1     -12.142  14.440  64.331  1.00  0.00    -0.420 S  
HETATM    3  H1  UNL     1     -13.158  14.987  66.184  1.00  0.00     0.000 HD 
HETATM    4  H2  UNL     1     -13.947  13.431  65.633  1.00  0.00     0.000 HD 
HETATM    5  O   UNL     1     -12.317  13.324  63.433  1.00  0.00    -0.726 OA 
HETATM    6  O   UNL     1     -12.372  15.806  63.917  1.00  0.00    -0.728 OA 
ENDROOT
BRANCH   2   7
HETATM    7  C   UNL     1     -10.598  14.309  65.239  1.00  0.00    -0.381 C  
BRANCH   7   8
HETATM    8  C   UNL     1     -10.634  13.257  66.285  1.00  0.00    -0.289 A  
HETATM    9  N   UNL     1     -10.897  13.610  67.555  1.00  0.00    -0.262 NA 
HETATM   10  O   UNL     1     -10.832  12.444  68.296  1.00  0.00    -0.217 OA 
HETATM   11  C   UNL     1     -10.508  11.407  67.484  1.00  0.00    -0.201 A  
HETATM   12  C   UNL     1     -10.350  10.079  67.874  1.00  0.00    -0.249 A  
HETATM   13  C   UNL     1     -10.013   9.171  66.865  1.00  0.00    -0.304 A  
HETATM   14  C   UNL     1      -9.838   9.593  65.545  1.00  0.00    -0.352 A  
HETATM   15  C   UNL     1      -9.999  10.941  65.189  1.00  0.00    -0.341 A  
HETATM   16  C   UNL     1     -10.357  11.866  66.185  1.00  0.00    -0.261 A  
ENDBRANCH   7   8
ENDBRANCH   2   7
TORSDOF 2
ENDMDL
MODEL       29
REMARK 921   NORMALIZED FREE ENERGY PREDICTED BY IDOCK:   -4.82 KCAL/MOL
REMARK 922        TOTAL FREE ENERGY PREDICTED BY IDOCK:   -5.78 KCAL/MOL
REMARK 923 INTER-LIGAND FREE ENERGY PREDICTED BY IDOCK:   -5.45 KCAL/MOL
REMARK 924 INTRA-LIGAND FREE ENERGY PREDICTED BY IDOCK:   -0.32 KCAL/MOL
REMARK 927      BINDING AFFINITY PREDICTED BY RF-SCORE:    0.00 PKD
ROOT
HETATM    1  N   UNL     1     -13.430  13.832  72.645  1.00  0.00    -0.561 N  
HETATM    2  S   UNL     1     -13.339  15.483  72.323  1.00  0.00    -0.502 S  
HETATM    3  H1  UNL     1     -12.674  13.651  73.306  1.00  0.00     0.000 HD 
HETATM    4  H2  UNL     1     -14.096  13.160  72.263  1.00  0.00     0.000 HD 
HETATM    5  O   UNL     1     -14.410  15.738  71.389  1.00  0.00    -0.467 OA 
HETATM    6  O   UNL     1     -13.304  16.084  73.637  1.00  0.00    -0.584 OA 
ENDROOT
BRANCH   2   7
HETATM    7  C   UNL     1     -11.736  15.615  71.527  1.00  0.00    -0.433 C  
BRANCH   7   8
HETATM    8  C   UNL     1     -11.716  15.015  70.170  1.00  0.00    -0.299 A  
HETATM    9  N   UNL     1     -12.143  13.751  70.010  1.00  0.00    -0.333 NA 
HETATM   10  O   UNL     1     -11.980  13.461  68.668  1.00  0.00    -0.343 OA 
HETATM   11  C   UNL     1     -11.437  14.530  68.033  1.00  0.00    -0.321 A  
HETATM   12  C   UNL     1     -11.127  14.608  66.678  1.00  0.00    -0.334 A  
HETATM   13  C   UNL     1     -10.571  15.813  66.236  1.00  0.00    -0.313 A  
HETATM   14  C   UNL     1     -10.337  16.866  67.124  1.00  0.00    -0.304 A  
HETATM   15  C   UNL     1     -10.656  16.750  68.485  1.00  0.00    -0.354 A  
HETATM   16  C   UNL     1     -11.234  15.554  68.945  1.00  0.00    -0.306 A  
ENDBRANCH   7   8
ENDBRANCH   2   7
TORSDOF 2
ENDMDL
MODEL       30
REMARK 921   NORMALIZED FREE ENERGY PREDICTED BY IDOCK:   -4.79 KCAL/MOL
REMARK 922        TOTAL FREE ENERGY PREDICTED BY IDOCK:   -5.75 KCAL/MOL
REMARK 923 INTER-LIGAND FREE ENERGY PREDICTED BY IDOCK:   -5.62 KCAL/MOL
REMARK 924 INTRA-LIGAND FREE ENERGY PREDICTED BY IDOCK:   -0.13 KCAL/MOL
REMARK 927      BINDING AFFINITY PREDICTED BY RF-SCORE:    0.00 PKD
ROOT
HETATM    1  N   UNL     1     -13.158  15.951  73.306  1.00  0.00    -0.552 N  
HETATM    2  S   UNL     1     -13.483  14.832  72.088  1.00  0.00    -0.438 S  
HETATM    3  H1  UNL     1     -12.899  16.806  72.814  1.00  0.00     0.000 HD 
HETATM    4  H2  UNL     1     -13.209  15.805  74.314  1.00  0.00     0.000 HD 
HETATM    5  O   UNL     1     -13.850  13.622  72.785  1.00  0.00    -0.727 OA 
HETATM    6  O   UNL     1     -14.404  15.531  71.221  1.00  0.00    -0.536 OA 
ENDROOT
BRANCH   2   7
HETATM    7  C   UNL     1     -11.877  14.668  71.302  1.00  0.00    -0.319 C  
BRANCH   7   8
HETATM    8  C   UNL     1     -11.883  13.699  70.177  1.00  0.00    -0.281 A  
HETATM    9  N   UNL     1     -11.930  12.385  70.450  1.00  0.00    -0.319 NA 
HETATM   10  O   UNL     1     -11.892  11.740  69.228  1.00  0.00    -0.296 OA 
HETATM   11  C   UNL     1     -11.797  12.657  68.232  1.00  0.00    -0.306 A  
HETATM   12  C   UNL     1     -11.732  12.382  66.869  1.00  0.00    -0.432 A  
HETATM   13  C   UNL     1     -11.636  13.487  66.016  1.00  0.00    -0.363 A  
HETATM   14  C   UNL     1     -11.598  14.788  66.525  1.00  0.00    -0.306 A  
HETATM   15  C   UNL     1     -11.658  15.027  67.906  1.00  0.00    -0.350 A  
HETATM   16  C   UNL     1     -11.775  13.931  68.778  1.00  0.00    -0.392 A  
ENDBRANCH   7   8
ENDBRANCH   2   7
TORSDOF 2
ENDMDL
MODEL       31
REMARK 921   NORMALIZED FREE ENERGY PREDICTED BY IDOCK:   -4.76 KCAL/MOL
REMARK 922        TOTAL FREE ENERGY PREDICTED BY IDOCK:   -5.72 KCAL/MOL
REMARK 923 INTER-LIGAND FREE ENERGY PREDICTED BY IDOCK:   -5.34 KCAL/MOL
REMARK 924 INTRA-LIGAND FREE ENERGY PREDICTED BY IDOCK:   -0.38 KCAL/MOL
REMARK 927      BINDING AFFINITY PREDICTED BY RF-SCORE:    0.00 PKD
ROOT
HETATM    1  N   UNL     1      -9.189  15.208  69.687  1.00  0.00    -0.450 N  
HETATM    2  S   UNL     1      -9.753  16.125  68.390  1.00  0.00    -0.224 S  
HETATM    3  H1  UNL     1      -9.015  14.282  69.297  1.00  0.00     0.000 HD 
HETATM    4  H2  UNL     1      -9.052  15.513  70.650  1.00  0.00     0.000 HD 
HETATM    5  O   UNL     1      -9.998  17.436  68.942  1.00  0.00    -0.305 OA 
HETATM    6  O   UNL     1      -8.767  15.896  67.358  1.00  0.00    -0.174 OA 
ENDROOT
BRANCH   2   7
HETATM    7  C   UNL     1     -11.291  15.290  67.990  1.00  0.00    -0.338 C  
BRANCH   7   8
HETATM    8  C   UNL     1     -11.677  14.278  69.004  1.00  0.00    -0.317 A  
HETATM    9  N   UNL     1     -11.299  13.001  68.828  1.00  0.00    -0.270 NA 
HETATM   10  O   UNL     1     -11.822  12.297  69.897  1.00  0.00    -0.321 OA 
HETATM   11  C   UNL     1     -12.529  13.138  70.693  1.00  0.00    -0.286 A  
HETATM   12  C   UNL     1     -13.201  12.789  71.862  1.00  0.00    -0.511 A  
HETATM   13  C   UNL     1     -13.868  13.822  72.528  1.00  0.00    -0.626 A  
HETATM   14  C   UNL     1     -13.858  15.126  72.026  1.00  0.00    -0.608 A  
HETATM   15  C   UNL     1     -13.176  15.440  70.841  1.00  0.00    -0.512 A  
HETATM   16  C   UNL     1     -12.482  14.419  70.167  1.00  0.00    -0.395 A  
ENDBRANCH   7   8
ENDBRANCH   2   7
TORSDOF 2
ENDMDL
MODEL       32
REMARK 921   NORMALIZED FREE ENERGY PREDICTED BY IDOCK:   -4.75 KCAL/MOL
REMARK 922        TOTAL FREE ENERGY PREDICTED BY IDOCK:   -5.71 KCAL/MOL
REMARK 923 INTER-LIGAND FREE ENERGY PREDICTED BY IDOCK:   -5.54 KCAL/MOL
REMARK 924 INTRA-LIGAND FREE ENERGY PREDICTED BY IDOCK:   -0.16 KCAL/MOL
REMARK 927      BINDING AFFINITY PREDICTED BY RF-SCORE:    0.00 PKD
ROOT
HETATM    1  N   UNL     1     -13.820  15.481  70.619  1.00  0.00    -0.834 N  
HETATM    2  S   UNL     1     -12.908  14.384  71.516  1.00  0.00    -0.362 S  
HETATM    3  H1  UNL     1     -14.483  14.906  70.098  1.00  0.00     0.000 HD 
HETATM    4  H2  UNL     1     -13.730  16.496  70.601  1.00  0.00     0.000 HD 
HETATM    5  O   UNL     1     -11.970  15.198  72.253  1.00  0.00    -0.357 OA 
HETATM    6  O   UNL     1     -13.904  13.570  72.174  1.00  0.00    -0.495 OA 
ENDROOT
BRANCH   2   7
HETATM    7  C   UNL     1     -12.082  13.450  70.225  1.00  0.00    -0.349 C  
BRANCH   7   8
HETATM    8  C   UNL     1     -11.601  14.306  69.112  1.00  0.00    -0.305 A  
HETATM    9  N   UNL     1     -11.128  15.532  69.391  1.00  0.00    -0.269 NA 
HETATM   10  O   UNL     1     -10.790  16.096  68.175  1.00  0.00    -0.303 OA 
HETATM   11  C   UNL     1     -11.082  15.229  67.174  1.00  0.00    -0.323 A  
HETATM   12  C   UNL     1     -10.882  15.450  65.814  1.00  0.00    -0.349 A  
HETATM   13  C   UNL     1     -11.258  14.412  64.954  1.00  0.00    -0.392 A  
HETATM   14  C   UNL     1     -11.811  13.230  65.451  1.00  0.00    -0.392 A  
HETATM   15  C   UNL     1     -12.004  13.045  66.828  1.00  0.00    -0.434 A  
HETATM   16  C   UNL     1     -11.615  14.067  67.710  1.00  0.00    -0.378 A  
ENDBRANCH   7   8
ENDBRANCH   2   7
TORSDOF 2
ENDMDL
MODEL       33
REMARK 921   NORMALIZED FREE ENERGY PREDICTED BY IDOCK:   -4.74 KCAL/MOL
REMARK 922        TOTAL FREE ENERGY PREDICTED BY IDOCK:   -5.69 KCAL/MOL
REMARK 923 INTER-LIGAND FREE ENERGY PREDICTED BY IDOCK:   -5.62 KCAL/MOL
REMARK 924 INTRA-LIGAND FREE ENERGY PREDICTED BY IDOCK:   -0.07 KCAL/MOL
REMARK 927      BINDING AFFINITY PREDICTED BY RF-SCORE:    0.00 PKD
ROOT
HETATM    1  N   UNL     1     -11.437   8.105  70.075  1.00  0.00    -0.465 N  
HETATM    2  S   UNL     1     -11.453   8.511  71.710  1.00  0.00    -0.336 S  
HETATM    3  H1  UNL     1     -11.221   8.976  69.590  1.00  0.00     0.000 HD 
HETATM    4  H2  UNL     1     -11.605   7.188  69.660  1.00  0.00     0.000 HD 
HETATM    5  O   UNL     1     -11.758   7.277  72.395  1.00  0.00    -0.278 OA 
HETATM    6  O   UNL     1     -10.202   9.209  71.900  1.00  0.00    -0.332 OA 
ENDROOT
BRANCH   2   7
HETATM    7  C   UNL     1     -12.833   9.657  71.790  1.00  0.00    -0.421 C  
BRANCH   7   8
HETATM    8  C   UNL     1     -12.563  10.933  71.083  1.00  0.00    -0.428 A  
HETATM    9  N   UNL     1     -11.806  10.916  69.973  1.00  0.00    -0.315 NA 
HETATM   10  O   UNL     1     -11.703  12.232  69.561  1.00  0.00    -0.302 OA 
HETATM   11  C   UNL     1     -12.369  13.034  70.429  1.00  0.00    -0.277 A  
HETATM   12  C   UNL     1     -12.484  14.419  70.342  1.00  0.00    -0.420 A  
HETATM   13  C   UNL     1     -13.221  15.046  71.352  1.00  0.00    -0.497 A  
HETATM   14  C   UNL     1     -13.794  14.307  72.390  1.00  0.00    -0.619 A  
HETATM   15  C   UNL     1     -13.652  12.913  72.449  1.00  0.00    -0.577 A  
HETATM   16  C   UNL     1     -12.932  12.261  71.433  1.00  0.00    -0.354 A  
ENDBRANCH   7   8
ENDBRANCH   2   7
TORSDOF 2
ENDMDL
MODEL       34
REMARK 921   NORMALIZED FREE ENERGY PREDICTED BY IDOCK:   -4.72 KCAL/MOL
REMARK 922        TOTAL FREE ENERGY PREDICTED BY IDOCK:   -5.67 KCAL/MOL
REMARK 923 INTER-LIGAND FREE ENERGY PREDICTED BY IDOCK:   -5.26 KCAL/MOL
REMARK 924 INTRA-LIGAND FREE ENERGY PREDICTED BY IDOCK:   -0.41 KCAL/MOL
REMARK 927      BINDING AFFINITY PREDICTED BY RF-SCORE:    0.00 PKD
ROOT
HETATM    1  N   UNL     1      -9.224  14.972  65.831  1.00  0.00    -0.489 N  
HETATM    2  S   UNL     1     -10.762  15.659  65.873  1.00  0.00    -0.311 S  
HETATM    3  H1  UNL     1      -9.132  14.593  64.888  1.00  0.00     0.000 HD 
HETATM    4  H2  UNL     1      -8.536  14.942  66.583  1.00  0.00     0.000 HD 
HETATM    5  O   UNL     1     -10.891  16.196  67.207  1.00  0.00    -0.309 OA 
HETATM    6  O   UNL     1     -10.791  16.500  64.698  1.00  0.00    -0.741 OA 
ENDROOT
BRANCH   2   7
HETATM    7  C   UNL     1     -11.813  14.222  65.646  1.00  0.00    -0.373 C  
BRANCH   7   8
HETATM    8  C   UNL     1     -11.060  13.021  65.208  1.00  0.00    -0.286 A  
HETATM    9  N   UNL     1     -10.546  12.991  63.967  1.00  0.00    -0.397 NA 
HETATM   10  O   UNL     1      -9.938  11.756  63.836  1.00  0.00    -0.301 OA 
HETATM   11  C   UNL     1     -10.107  11.042  64.977  1.00  0.00    -0.296 A  
HETATM   12  C   UNL     1      -9.636   9.753  65.215  1.00  0.00    -0.368 A  
HETATM   13  C   UNL     1      -9.928   9.207  66.469  1.00  0.00    -0.359 A  
HETATM   14  C   UNL     1     -10.663   9.926  67.414  1.00  0.00    -0.323 A  
HETATM   15  C   UNL     1     -11.129  11.220  67.137  1.00  0.00    -0.364 A  
HETATM   16  C   UNL     1     -10.829  11.795  65.890  1.00  0.00    -0.339 A  
ENDBRANCH   7   8
ENDBRANCH   2   7
TORSDOF 2
ENDMDL
MODEL       35
REMARK 921   NORMALIZED FREE ENERGY PREDICTED BY IDOCK:   -4.71 KCAL/MOL
REMARK 922        TOTAL FREE ENERGY PREDICTED BY IDOCK:   -5.65 KCAL/MOL
REMARK 923 INTER-LIGAND FREE ENERGY PREDICTED BY IDOCK:   -5.43 KCAL/MOL
REMARK 924 INTRA-LIGAND FREE ENERGY PREDICTED BY IDOCK:   -0.22 KCAL/MOL
REMARK 927      BINDING AFFINITY PREDICTED BY RF-SCORE:    0.00 PKD
ROOT
HETATM    1  N   UNL     1      -8.903  19.500  66.097  1.00  0.00    -0.351 N  
HETATM    2  S   UNL     1     -10.278  18.628  66.529  1.00  0.00    -0.431 S  
HETATM    3  H1  UNL     1      -8.462  18.948  65.361  1.00  0.00     0.000 HD 
HETATM    4  H2  UNL     1      -8.582  20.387  66.485  1.00  0.00     0.000 HD 
HETATM    5  O   UNL     1     -10.902  19.411  67.570  1.00  0.00    -0.478 OA 
HETATM    6  O   UNL     1     -10.929  18.370  65.265  1.00  0.00    -0.563 OA 
ENDROOT
BRANCH   2   7
HETATM    7  C   UNL     1      -9.564  17.119  67.190  1.00  0.00    -0.255 C  
BRANCH   7   8
HETATM    8  C   UNL     1     -10.537  16.000  67.248  1.00  0.00    -0.313 A  
HETATM    9  N   UNL     1     -11.214  15.783  68.388  1.00  0.00    -0.345 NA 
HETATM   10  O   UNL     1     -12.007  14.675  68.156  1.00  0.00    -0.313 OA 
HETATM   11  C   UNL     1     -11.789  14.215  66.898  1.00  0.00    -0.431 A  
HETATM   12  C   UNL     1     -12.406  13.114  66.310  1.00  0.00    -0.346 A  
HETATM   13  C   UNL     1     -12.029  12.818  64.996  1.00  0.00    -0.456 A  
HETATM   14  C   UNL     1     -11.075  13.592  64.330  1.00  0.00    -0.371 A  
HETATM   15  C   UNL     1     -10.469  14.691  64.957  1.00  0.00    -0.447 A  
HETATM   16  C   UNL     1     -10.849  15.016  66.270  1.00  0.00    -0.333 A  
ENDBRANCH   7   8
ENDBRANCH   2   7
TORSDOF 2
ENDMDL
MODEL       36
REMARK 921   NORMALIZED FREE ENERGY PREDICTED BY IDOCK:   -4.70 KCAL/MOL
REMARK 922        TOTAL FREE ENERGY PREDICTED BY IDOCK:   -5.65 KCAL/MOL
REMARK 923 INTER-LIGAND FREE ENERGY PREDICTED BY IDOCK:   -5.37 KCAL/MOL
REMARK 924 INTRA-LIGAND FREE ENERGY PREDICTED BY IDOCK:   -0.28 KCAL/MOL
REMARK 927      BINDING AFFINITY PREDICTED BY RF-SCORE:    0.00 PKD
ROOT
HETATM    1  N   UNL     1     -11.469   8.422  69.727  1.00  0.00    -0.431 N  
HETATM    2  S   UNL     1     -10.806   9.474  70.864  1.00  0.00    -0.358 S  
HETATM    3  H1  UNL     1     -11.456   8.942  68.850  1.00  0.00     0.000 HD 
HETATM    4  H2  UNL     1     -11.808   7.473  69.882  1.00  0.00     0.000 HD 
HETATM    5  O   UNL     1     -10.824   8.737  72.106  1.00  0.00    -0.354 OA 
HETATM    6  O   UNL     1      -9.575   9.912  70.246  1.00  0.00    -0.239 OA 
ENDROOT
BRANCH   2   7
HETATM    7  C   UNL     1     -12.011  10.804  70.881  1.00  0.00    -0.333 C  
BRANCH   7   8
HETATM    8  C   UNL     1     -11.993  11.613  69.637  1.00  0.00    -0.324 A  
HETATM    9  N   UNL     1     -12.014  10.984  68.450  1.00  0.00    -0.581 NA 
HETATM   10  O   UNL     1     -11.957  11.978  67.491  1.00  0.00    -0.572 OA 
HETATM   11  C   UNL     1     -11.877  13.190  68.095  1.00  0.00    -0.348 A  
HETATM   12  C   UNL     1     -11.801  14.423  67.452  1.00  0.00    -0.430 A  
HETATM   13  C   UNL     1     -11.725  15.550  68.276  1.00  0.00    -0.287 A  
HETATM   14  C   UNL     1     -11.716  15.425  69.668  1.00  0.00    -0.355 A  
HETATM   15  C   UNL     1     -11.787  14.165  70.282  1.00  0.00    -0.373 A  
HETATM   16  C   UNL     1     -11.884  13.021  69.471  1.00  0.00    -0.385 A  
ENDBRANCH   7   8
ENDBRANCH   2   7
TORSDOF 2
ENDMDL
MODEL       37
REMARK 921   NORMALIZED FREE ENERGY PREDICTED BY IDOCK:   -4.70 KCAL/MOL
REMARK 922        TOTAL FREE ENERGY PREDICTED BY IDOCK:   -5.64 KCAL/MOL
REMARK 923 INTER-LIGAND FREE ENERGY PREDICTED BY IDOCK:   -5.42 KCAL/MOL
REMARK 924 INTRA-LIGAND FREE ENERGY PREDICTED BY IDOCK:   -0.22 KCAL/MOL
REMARK 927      BINDING AFFINITY PREDICTED BY RF-SCORE:    0.00 PKD
ROOT
HETATM    1  N   UNL     1      -8.842  20.534  66.790  1.00  0.00    -0.560 N  
HETATM    2  S   UNL     1     -10.068  19.386  66.648  1.00  0.00    -0.448 S  
HETATM    3  H1  UNL     1      -8.387  20.546  65.878  1.00  0.00     0.000 HD 
HETATM    4  H2  UNL     1      -8.609  21.095  67.609  1.00  0.00     0.000 HD 
HETATM    5  O   UNL     1     -10.713  19.371  67.939  1.00  0.00    -0.408 OA 
HETATM    6  O   UNL     1     -10.763  19.779  65.444  1.00  0.00    -0.432 OA 
ENDROOT
BRANCH   2   7
HETATM    7  C   UNL     1      -9.130  17.880  66.372  1.00  0.00    -0.235 C  
BRANCH   7   8
HETATM    8  C   UNL     1      -9.996  16.697  66.145  1.00  0.00    -0.337 A  
HETATM    9  N   UNL     1     -10.417  16.426  64.899  1.00  0.00    -0.618 NA 
HETATM   10  O   UNL     1     -11.218  15.304  65.002  1.00  0.00    -0.384 OA 
HETATM   11  C   UNL     1     -11.299  14.920  66.301  1.00  0.00    -0.306 A  
HETATM   12  C   UNL     1     -12.019  13.834  66.791  1.00  0.00    -0.465 A  
HETATM   13  C   UNL     1     -11.961  13.622  68.173  1.00  0.00    -0.390 A  
HETATM   14  C   UNL     1     -11.225  14.473  69.001  1.00  0.00    -0.289 A  
HETATM   15  C   UNL     1     -10.517  15.563  68.472  1.00  0.00    -0.238 A  
HETATM   16  C   UNL     1     -10.546  15.781  67.084  1.00  0.00    -0.313 A  
ENDBRANCH   7   8
ENDBRANCH   2   7
TORSDOF 2
ENDMDL
MODEL       38
REMARK 921   NORMALIZED FREE ENERGY PREDICTED BY IDOCK:   -4.69 KCAL/MOL
REMARK 922        TOTAL FREE ENERGY PREDICTED BY IDOCK:   -5.64 KCAL/MOL
REMARK 923 INTER-LIGAND FREE ENERGY PREDICTED BY IDOCK:   -5.17 KCAL/MOL
REMARK 924 INTRA-LIGAND FREE ENERGY PREDICTED BY IDOCK:   -0.47 KCAL/MOL
REMARK 927      BINDING AFFINITY PREDICTED BY RF-SCORE:    0.00 PKD
ROOT
HETATM    1  N   UNL     1      -8.647  16.368  66.168  1.00  0.00    -0.332 N  
HETATM    2  S   UNL     1     -10.245  16.882  66.312  1.00  0.00    -0.319 S  
HETATM    3  H1  UNL     1      -8.682  15.582  65.519  1.00  0.00     0.000 HD 
HETATM    4  H2  UNL     1      -7.825  16.758  66.628  1.00  0.00     0.000 HD 
HETATM    5  O   UNL     1     -10.196  17.995  67.230  1.00  0.00    -0.333 OA 
HETATM    6  O   UNL     1     -10.679  17.033  64.942  1.00  0.00    -0.728 OA 
ENDROOT
BRANCH   2   7
HETATM    7  C   UNL     1     -11.025  15.451  67.066  1.00  0.00    -0.306 C  
BRANCH   7   8
HETATM    8  C   UNL     1     -10.540  14.167  66.501  1.00  0.00    -0.282 A  
HETATM    9  N   UNL     1      -9.502  13.548  67.088  1.00  0.00    -0.235 NA 
HETATM   10  O   UNL     1      -9.260  12.413  66.336  1.00  0.00    -0.231 OA 
HETATM   11  C   UNL     1     -10.126  12.366  65.292  1.00  0.00    -0.265 A  
HETATM   12  C   UNL     1     -10.182  11.372  64.319  1.00  0.00    -0.367 A  
HETATM   13  C   UNL     1     -11.159  11.525  63.330  1.00  0.00    -0.370 A  
HETATM   14  C   UNL     1     -12.017  12.628  63.330  1.00  0.00    -0.613 A  
HETATM   15  C   UNL     1     -11.927  13.615  64.324  1.00  0.00    -0.488 A  
HETATM   16  C   UNL     1     -10.964  13.469  65.338  1.00  0.00    -0.300 A  
ENDBRANCH   7   8
ENDBRANCH   2   7
TORSDOF 2
ENDMDL
MODEL       39
REMARK 921   NORMALIZED FREE ENERGY PREDICTED BY IDOCK:   -4.64 KCAL/MOL
REMARK 922        TOTAL FREE ENERGY PREDICTED BY IDOCK:   -5.58 KCAL/MOL
REMARK 923 INTER-LIGAND FREE ENERGY PREDICTED BY IDOCK:   -5.12 KCAL/MOL
REMARK 924 INTRA-LIGAND FREE ENERGY PREDICTED BY IDOCK:   -0.47 KCAL/MOL
REMARK 927      BINDING AFFINITY PREDICTED BY RF-SCORE:    0.00 PKD
ROOT
HETATM    1  N   UNL     1     -10.788  13.299  64.129  1.00  0.00    -0.510 N  
HETATM    2  S   UNL     1     -12.308  13.755  64.698  1.00  0.00    -0.344 S  
HETATM    3  H1  UNL     1     -10.503  12.528  64.732  1.00  0.00     0.000 HD 
HETATM    4  H2  UNL     1     -10.268  13.706  63.352  1.00  0.00     0.000 HD 
HETATM    5  O   UNL     1     -12.711  14.847  63.844  1.00  0.00    -0.789 OA 
HETATM    6  O   UNL     1     -13.038  12.509  64.753  1.00  0.00    -0.853 OA 
ENDROOT
BRANCH   2   7
HETATM    7  C   UNL     1     -11.923  14.333  66.354  1.00  0.00    -0.419 C  
BRANCH   7   8
HETATM    8  C   UNL     1     -10.788  13.601  66.969  1.00  0.00    -0.286 A  
HETATM    9  N   UNL     1      -9.541  14.074  66.805  1.00  0.00    -0.276 NA 
HETATM   10  O   UNL     1      -8.706  13.182  67.452  1.00  0.00    -0.185 OA 
HETATM   11  C   UNL     1      -9.441  12.169  67.977  1.00  0.00    -0.201 A  
HETATM   12  C   UNL     1      -8.946  11.085  68.696  1.00  0.00    -0.167 A  
HETATM   13  C   UNL     1      -9.889  10.155  69.146  1.00  0.00    -0.225 A  
HETATM   14  C   UNL     1     -11.249  10.317  68.869  1.00  0.00    -0.259 A  
HETATM   15  C   UNL     1     -11.712  11.419  68.135  1.00  0.00    -0.355 A  
HETATM   16  C   UNL     1     -10.782  12.376  67.691  1.00  0.00    -0.248 A  
ENDBRANCH   7   8
ENDBRANCH   2   7
TORSDOF 2
ENDMDL
MODEL       40
REMARK 921   NORMALIZED FREE ENERGY PREDICTED BY IDOCK:   -4.62 KCAL/MOL
REMARK 922        TOTAL FREE ENERGY PREDICTED BY IDOCK:   -5.56 KCAL/MOL
REMARK 923 INTER-LIGAND FREE ENERGY PREDICTED BY IDOCK:   -5.32 KCAL/MOL
REMARK 924 INTRA-LIGAND FREE ENERGY PREDICTED BY IDOCK:   -0.24 KCAL/MOL
REMARK 927      BINDING AFFINITY PREDICTED BY RF-SCORE:    0.00 PKD
ROOT
HETATM    1  N   UNL     1     -11.851   8.260  70.345  1.00  0.00    -0.474 N  
HETATM    2  S   UNL     1     -10.634   9.365  69.976  1.00  0.00    -0.251 S  
HETATM    3  H1  UNL     1     -12.292   8.046  69.450  1.00  0.00     0.000 HD 
HETATM    4  H2  UNL     1     -12.094   7.886  71.262  1.00  0.00     0.000 HD 
HETATM    5  O   UNL     1     -10.010   9.666  71.243  1.00  0.00    -0.186 OA 
HETATM    6  O   UNL     1      -9.915   8.730  68.895  1.00  0.00    -0.180 OA 
ENDROOT
BRANCH   2   7
HETATM    7  C   UNL     1     -11.580  10.764  69.367  1.00  0.00    -0.308 C  
BRANCH   7   8
HETATM    8  C   UNL     1     -12.257  11.516  70.453  1.00  0.00    -0.355 A  
HETATM    9  N   UNL     1     -12.914  10.835  71.406  1.00  0.00    -0.418 NA 
HETATM   10  O   UNL     1     -13.461  11.786  72.247  1.00  0.00    -0.423 OA 
HETATM   11  C   UNL     1     -13.158  13.027  71.788  1.00  0.00    -0.373 A  
HETATM   12  C   UNL     1     -13.539  14.232  72.373  1.00  0.00    -0.599 A  
HETATM   13  C   UNL     1     -13.114  15.397  71.727  1.00  0.00    -0.529 A  
HETATM   14  C   UNL     1     -12.357  15.335  70.554  1.00  0.00    -0.434 A  
HETATM   15  C   UNL     1     -11.997  14.102  69.990  1.00  0.00    -0.404 A  
HETATM   16  C   UNL     1     -12.398  12.919  70.634  1.00  0.00    -0.385 A  
ENDBRANCH   7   8
ENDBRANCH   2   7
TORSDOF 2
ENDMDL
MODEL       41
REMARK 921   NORMALIZED FREE ENERGY PREDICTED BY IDOCK:   -4.60 KCAL/MOL
REMARK 922        TOTAL FREE ENERGY PREDICTED BY IDOCK:   -5.54 KCAL/MOL
REMARK 923 INTER-LIGAND FREE ENERGY PREDICTED BY IDOCK:   -5.08 KCAL/MOL
REMARK 924 INTRA-LIGAND FREE ENERGY PREDICTED BY IDOCK:   -0.46 KCAL/MOL
REMARK 927      BINDING AFFINITY PREDICTED BY RF-SCORE:    0.00 PKD
ROOT
HETATM    1  N   UNL     1      -9.557  14.411  69.103  1.00  0.00    -0.403 N  
HETATM    2  S   UNL     1     -11.091  15.105  69.170  1.00  0.00    -0.276 S  
HETATM    3  H1  UNL     1      -9.451  14.102  68.137  1.00  0.00     0.000 HD 
HETATM    4  H2  UNL     1      -8.882  14.320  69.862  1.00  0.00     0.000 HD 
HETATM    5  O   UNL     1     -11.241  15.543  70.538  1.00  0.00    -0.286 OA 
HETATM    6  O   UNL     1     -11.094  16.031  68.061  1.00  0.00    -0.341 OA 
ENDROOT
BRANCH   2   7
HETATM    7  C   UNL     1     -12.148  13.697  68.819  1.00  0.00    -0.297 C  
BRANCH   7   8
HETATM    8  C   UNL     1     -11.658  12.880  67.681  1.00  0.00    -0.355 A  
HETATM    9  N   UNL     1     -10.873  11.819  67.931  1.00  0.00    -0.201 NA 
HETATM   10  O   UNL     1     -10.553  11.282  66.697  1.00  0.00    -0.241 OA 
HETATM   11  C   UNL     1     -11.120  12.028  65.716  1.00  0.00    -0.324 A  
HETATM   12  C   UNL     1     -11.017  11.796  64.346  1.00  0.00    -0.397 A  
HETATM   13  C   UNL     1     -11.686  12.696  63.511  1.00  0.00    -0.604 A  
HETATM   14  C   UNL     1     -12.405  13.771  64.040  1.00  0.00    -0.370 A  
HETATM   15  C   UNL     1     -12.481  13.979  65.426  1.00  0.00    -0.520 A  
HETATM   16  C   UNL     1     -11.832  13.073  66.283  1.00  0.00    -0.466 A  
ENDBRANCH   7   8
ENDBRANCH   2   7
TORSDOF 2
ENDMDL
MODEL       42
REMARK 921   NORMALIZED FREE ENERGY PREDICTED BY IDOCK:   -4.55 KCAL/MOL
REMARK 922        TOTAL FREE ENERGY PREDICTED BY IDOCK:   -5.48 KCAL/MOL
REMARK 923 INTER-LIGAND FREE ENERGY PREDICTED BY IDOCK:   -5.06 KCAL/MOL
REMARK 924 INTRA-LIGAND FREE ENERGY PREDICTED BY IDOCK:   -0.42 KCAL/MOL
REMARK 927      BINDING AFFINITY PREDICTED BY RF-SCORE:    0.00 PKD
ROOT
HETATM    1  N   UNL     1     -11.855  12.943  67.062  1.00  0.00    -0.382 N  
HETATM    2  S   UNL     1     -11.192  13.434  68.531  1.00  0.00    -0.303 S  
HETATM    3  H1  UNL     1     -11.183  12.278  66.680  1.00  0.00     0.000 HD 
HETATM    4  H2  UNL     1     -12.737  13.244  66.647  1.00  0.00     0.000 HD 
HETATM    5  O   UNL     1     -12.144  14.374  69.073  1.00  0.00    -0.312 OA 
HETATM    6  O   UNL     1     -10.876  12.189  69.195  1.00  0.00    -0.201 OA 
ENDROOT
BRANCH   2   7
HETATM    7  C   UNL     1      -9.691  14.263  67.998  1.00  0.00    -0.223 C  
BRANCH   7   8
HETATM    8  C   UNL     1      -9.960  15.443  67.140  1.00  0.00    -0.234 A  
HETATM    9  N   UNL     1     -10.064  15.273  65.811  1.00  0.00    -0.328 NA 
HETATM   10  O   UNL     1     -10.280  16.531  65.281  1.00  0.00    -0.588 OA 
HETATM   11  C   UNL     1     -10.279  17.451  66.278  1.00  0.00    -0.341 A  
HETATM   12  C   UNL     1     -10.464  18.824  66.127  1.00  0.00    -0.499 A  
HETATM   13  C   UNL     1     -10.425  19.588  67.297  1.00  0.00    -0.590 A  
HETATM   14  C   UNL     1     -10.201  18.991  68.540  1.00  0.00    -0.422 A  
HETATM   15  C   UNL     1     -10.012  17.605  68.654  1.00  0.00    -0.367 A  
HETATM   16  C   UNL     1     -10.068  16.817  67.492  1.00  0.00    -0.276 A  
ENDBRANCH   7   8
ENDBRANCH   2   7
TORSDOF 2
ENDMDL
MODEL       43
REMARK 921   NORMALIZED FREE ENERGY PREDICTED BY IDOCK:   -4.55 KCAL/MOL
REMARK 922        TOTAL FREE ENERGY PREDICTED BY IDOCK:   -5.48 KCAL/MOL
REMARK 923 INTER-LIGAND FREE ENERGY PREDICTED BY IDOCK:   -5.06 KCAL/MOL
REMARK 924 INTRA-LIGAND FREE ENERGY PREDICTED BY IDOCK:   -0.41 KCAL/MOL
REMARK 927      BINDING AFFINITY PREDICTED BY RF-SCORE:    0.00 PKD
ROOT
HETATM    1  N   UNL     1     -12.095  13.465  70.582  1.00  0.00    -0.483 N  
HETATM    2  S   UNL     1     -12.305  15.130  70.738  1.00  0.00    -0.396 S  
HETATM    3  H1  UNL     1     -11.099  13.343  70.399  1.00  0.00     0.000 HD 
HETATM    4  H2  UNL     1     -12.807  12.739  70.655  1.00  0.00     0.000 HD 
HETATM    5  O   UNL     1     -13.715  15.302  70.998  1.00  0.00    -0.448 OA 
HETATM    6  O   UNL     1     -11.293  15.512  71.696  1.00  0.00    -0.389 OA 
ENDROOT
BRANCH   2   7
HETATM    7  C   UNL     1     -11.870  15.711  69.096  1.00  0.00    -0.362 C  
BRANCH   7   8
HETATM    8  C   UNL     1     -11.082  14.719  68.324  1.00  0.00    -0.274 A  
HETATM    9  N   UNL     1      -9.821  14.451  68.703  1.00  0.00    -0.231 NA 
HETATM   10  O   UNL     1      -9.337  13.529  67.793  1.00  0.00    -0.197 OA 
HETATM   11  C   UNL     1     -10.288  13.266  66.862  1.00  0.00    -0.255 A  
HETATM   12  C   UNL     1     -10.163  12.389  65.787  1.00  0.00    -0.283 A  
HETATM   13  C   UNL     1     -11.276  12.271  64.949  1.00  0.00    -0.365 A  
HETATM   14  C   UNL     1     -12.438  13.009  65.186  1.00  0.00    -0.552 A  
HETATM   15  C   UNL     1     -12.527  13.889  66.276  1.00  0.00    -0.454 A  
HETATM   16  C   UNL     1     -11.426  14.006  67.142  1.00  0.00    -0.373 A  
ENDBRANCH   7   8
ENDBRANCH   2   7
TORSDOF 2
ENDMDL
MODEL       44
REMARK 921   NORMALIZED FREE ENERGY PREDICTED BY IDOCK:   -4.54 KCAL/MOL
REMARK 922        TOTAL FREE ENERGY PREDICTED BY IDOCK:   -5.47 KCAL/MOL
REMARK 923 INTER-LIGAND FREE ENERGY PREDICTED BY IDOCK:   -5.04 KCAL/MOL
REMARK 924 INTRA-LIGAND FREE ENERGY PREDICTED BY IDOCK:   -0.43 KCAL/MOL
REMARK 927      BINDING AFFINITY PREDICTED BY RF-SCORE:    0.00 PKD
ROOT
HETATM    1  N   UNL     1     -13.663   7.005  72.003  1.00  0.00    -0.555 N  
HETATM    2  S   UNL     1     -12.018   6.726  71.770  1.00  0.00    -0.350 S  
HETATM    3  H1  UNL     1     -13.884   7.795  71.396  1.00  0.00     0.000 HD 
HETATM    4  H2  UNL     1     -14.300   6.494  72.615  1.00  0.00     0.000 HD 
HETATM    5  O   UNL     1     -11.706   5.608  72.628  1.00  0.00    -0.303 OA 
HETATM    6  O   UNL     1     -11.884   6.655  70.333  1.00  0.00    -0.396 OA 
ENDROOT
BRANCH   2   7
HETATM    7  C   UNL     1     -11.296   8.247  72.396  1.00  0.00    -0.388 C  
BRANCH   7   8
HETATM    8  C   UNL     1     -11.744   9.447  71.648  1.00  0.00    -0.398 A  
HETATM    9  N   UNL     1     -12.917  10.017  71.972  1.00  0.00    -0.427 NA 
HETATM   10  O   UNL     1     -13.081  11.076  71.099  1.00  0.00    -0.352 OA 
HETATM   11  C   UNL     1     -12.030  11.126  70.242  1.00  0.00    -0.373 A  
HETATM   12  C   UNL     1     -11.848  12.056  69.221  1.00  0.00    -0.377 A  
HETATM   13  C   UNL     1     -10.686  11.919  68.456  1.00  0.00    -0.254 A  
HETATM   14  C   UNL     1      -9.773  10.892  68.709  1.00  0.00    -0.196 A  
HETATM   15  C   UNL     1      -9.992   9.968  69.742  1.00  0.00    -0.276 A  
HETATM   16  C   UNL     1     -11.145  10.101  70.536  1.00  0.00    -0.400 A  
ENDBRANCH   7   8
ENDBRANCH   2   7
TORSDOF 2
ENDMDL
MODEL       45
REMARK 921   NORMALIZED FREE ENERGY PREDICTED BY IDOCK:   -4.54 KCAL/MOL
REMARK 922        TOTAL FREE ENERGY PREDICTED BY IDOCK:   -5.47 KCAL/MOL
REMARK 923 INTER-LIGAND FREE ENERGY PREDICTED BY IDOCK:   -5.23 KCAL/MOL
REMARK 924 INTRA-LIGAND FREE ENERGY PREDICTED BY IDOCK:   -0.24 KCAL/MOL
REMARK 927      BINDING AFFINITY PREDICTED BY RF-SCORE:    0.00 PKD
ROOT
HETATM    1  N   UNL     1     -12.687  11.476  62.932  1.00  0.00    -0.839 N  
HETATM    2  S   UNL     1     -11.821  12.706  63.691  1.00  0.00    -0.560 S  
HETATM    3  H1  UNL     1     -13.661  11.648  63.182  1.00  0.00     0.000 HD 
HETATM    4  H2  UNL     1     -12.318  10.725  62.349  1.00  0.00     0.000 HD 
HETATM    5  O   UNL     1     -10.443  12.463  63.336  1.00  0.00    -0.426 OA 
HETATM    6  O   UNL     1     -12.518  13.908  63.294  1.00  0.00    -0.817 OA 
ENDROOT
BRANCH   2   7
HETATM    7  C   UNL     1     -12.118  12.349  65.425  1.00  0.00    -0.365 C  
BRANCH   7   8
HETATM    8  C   UNL     1     -11.423  13.293  66.334  1.00  0.00    -0.329 A  
HETATM    9  N   UNL     1     -12.065  14.403  66.736  1.00  0.00    -0.412 NA 
HETATM   10  O   UNL     1     -11.172  15.092  67.536  1.00  0.00    -0.318 OA 
HETATM   11  C   UNL     1      -9.997  14.417  67.592  1.00  0.00    -0.224 A  
HETATM   12  C   UNL     1      -8.861  14.805  68.298  1.00  0.00    -0.179 A  
HETATM   13  C   UNL     1      -7.756  13.953  68.215  1.00  0.00    -0.136 A  
HETATM   14  C   UNL     1      -7.803  12.784  67.451  1.00  0.00    -0.172 A  
HETATM   15  C   UNL     1      -8.963  12.428  66.746  1.00  0.00    -0.205 A  
HETATM   16  C   UNL     1     -10.092  13.261  66.833  1.00  0.00    -0.250 A  
ENDBRANCH   7   8
ENDBRANCH   2   7
TORSDOF 2
ENDMDL
MODEL       46
REMARK 921   NORMALIZED FREE ENERGY PREDICTED BY IDOCK:   -4.52 KCAL/MOL
REMARK 922        TOTAL FREE ENERGY PREDICTED BY IDOCK:   -5.45 KCAL/MOL
REMARK 923 INTER-LIGAND FREE ENERGY PREDICTED BY IDOCK:   -5.19 KCAL/MOL
REMARK 924 INTRA-LIGAND FREE ENERGY PREDICTED BY IDOCK:   -0.26 KCAL/MOL
REMARK 927      BINDING AFFINITY PREDICTED BY RF-SCORE:    0.00 PKD
ROOT
HETATM    1  N   UNL     1      -9.671  14.666  65.081  1.00  0.00    -0.461 N  
HETATM    2  S   UNL     1     -11.036  15.608  65.381  1.00  0.00    -0.301 S  
HETATM    3  H1  UNL     1      -9.682  13.951  65.807  1.00  0.00     0.000 HD 
HETATM    4  H2  UNL     1      -8.985  14.786  64.336  1.00  0.00     0.000 HD 
HETATM    5  O   UNL     1     -11.021  16.621  64.352  1.00  0.00    -0.924 OA 
HETATM    6  O   UNL     1     -12.101  14.638  65.491  1.00  0.00    -0.316 OA 
ENDROOT
BRANCH   2   7
HETATM    7  C   UNL     1     -10.653  16.309  66.989  1.00  0.00    -0.284 C  
BRANCH   7   8
HETATM    8  C   UNL     1     -10.015  17.646  66.897  1.00  0.00    -0.323 A  
HETATM    9  N   UNL     1     -10.755  18.740  67.145  1.00  0.00    -0.431 NA 
HETATM   10  O   UNL     1      -9.914  19.820  66.954  1.00  0.00    -0.358 OA 
HETATM   11  C   UNL     1      -8.689  19.381  66.570  1.00  0.00    -0.351 A  
HETATM   12  C   UNL     1      -7.585  20.180  66.284  1.00  0.00    -0.298 A  
HETATM   13  C   UNL     1      -6.416  19.512  65.905  1.00  0.00    -0.234 A  
HETATM   14  C   UNL     1      -6.381  18.119  65.813  1.00  0.00    -0.297 A  
HETATM   15  C   UNL     1      -7.516  17.346  66.102  1.00  0.00    -0.331 A  
HETATM   16  C   UNL     1      -8.694  17.997  66.504  1.00  0.00    -0.279 A  
ENDBRANCH   7   8
ENDBRANCH   2   7
TORSDOF 2
ENDMDL
MODEL       47
REMARK 921   NORMALIZED FREE ENERGY PREDICTED BY IDOCK:   -4.52 KCAL/MOL
REMARK 922        TOTAL FREE ENERGY PREDICTED BY IDOCK:   -5.45 KCAL/MOL
REMARK 923 INTER-LIGAND FREE ENERGY PREDICTED BY IDOCK:   -4.99 KCAL/MOL
REMARK 924 INTRA-LIGAND FREE ENERGY PREDICTED BY IDOCK:   -0.46 KCAL/MOL
REMARK 927      BINDING AFFINITY PREDICTED BY RF-SCORE:    0.00 PKD
ROOT
HETATM    1  N   UNL     1     -11.084   8.946  68.325  1.00  0.00    -0.446 N  
HETATM    2  S   UNL     1     -11.062  10.370  69.227  1.00  0.00    -0.262 S  
HETATM    3  H1  UNL     1     -10.136   8.579  68.392  1.00  0.00     0.000 HD 
HETATM    4  H2  UNL     1     -11.874   8.541  67.823  1.00  0.00     0.000 HD 
HETATM    5  O   UNL     1     -12.405  10.890  69.132  1.00  0.00    -0.435 OA 
HETATM    6  O   UNL     1     -10.479   9.966  70.486  1.00  0.00    -0.284 OA 
ENDROOT
BRANCH   2   7
HETATM    7  C   UNL     1      -9.907  11.378  68.292  1.00  0.00    -0.200 C  
BRANCH   7   8
HETATM    8  C   UNL     1     -10.038  11.195  66.826  1.00  0.00    -0.218 A  
HETATM    9  N   UNL     1      -9.174  10.387  66.189  1.00  0.00    -0.164 NA 
HETATM   10  O   UNL     1      -9.518  10.438  64.851  1.00  0.00    -0.217 OA 
HETATM   11  C   UNL     1     -10.562  11.288  64.682  1.00  0.00    -0.327 A  
HETATM   12  C   UNL     1     -11.180  11.596  63.473  1.00  0.00    -0.462 A  
HETATM   13  C   UNL     1     -12.244  12.502  63.532  1.00  0.00    -0.652 A  
HETATM   14  C   UNL     1     -12.643  13.066  64.746  1.00  0.00    -0.460 A  
HETATM   15  C   UNL     1     -11.992  12.738  65.945  1.00  0.00    -0.506 A  
HETATM   16  C   UNL     1     -10.933  11.813  65.910  1.00  0.00    -0.354 A  
ENDBRANCH   7   8
ENDBRANCH   2   7
TORSDOF 2
ENDMDL
MODEL       48
REMARK 921   NORMALIZED FREE ENERGY PREDICTED BY IDOCK:   -4.49 KCAL/MOL
REMARK 922        TOTAL FREE ENERGY PREDICTED BY IDOCK:   -5.42 KCAL/MOL
REMARK 923 INTER-LIGAND FREE ENERGY PREDICTED BY IDOCK:   -4.95 KCAL/MOL
REMARK 924 INTRA-LIGAND FREE ENERGY PREDICTED BY IDOCK:   -0.47 KCAL/MOL
REMARK 927      BINDING AFFINITY PREDICTED BY RF-SCORE:    0.00 PKD
ROOT
HETATM    1  N   UNL     1     -12.125  10.345  69.191  1.00  0.00    -0.525 N  
HETATM    2  S   UNL     1     -10.493   9.988  68.974  1.00  0.00    -0.227 S  
HETATM    3  H1  UNL     1     -12.472  10.566  68.258  1.00  0.00     0.000 HD 
HETATM    4  H2  UNL     1     -12.651  10.341  70.065  1.00  0.00     0.000 HD 
HETATM    5  O   UNL     1     -10.003   9.676  70.295  1.00  0.00    -0.241 OA 
HETATM    6  O   UNL     1     -10.497   9.017  67.904  1.00  0.00    -0.231 OA 
ENDROOT
BRANCH   2   7
HETATM    7  C   UNL     1      -9.846  11.561  68.396  1.00  0.00    -0.204 C  
BRANCH   7   8
HETATM    8  C   UNL     1     -10.783  12.270  67.490  1.00  0.00    -0.225 A  
HETATM    9  N   UNL     1     -11.656  13.148  68.012  1.00  0.00    -0.312 NA 
HETATM   10  O   UNL     1     -12.406  13.618  66.950  1.00  0.00    -0.365 OA 
HETATM   11  C   UNL     1     -12.006  13.009  65.805  1.00  0.00    -0.429 A  
HETATM   12  C   UNL     1     -12.532  13.226  64.534  1.00  0.00    -0.381 A  
HETATM   13  C   UNL     1     -11.965  12.485  63.492  1.00  0.00    -0.629 A  
HETATM   14  C   UNL     1     -10.934  11.574  63.735  1.00  0.00    -0.485 A  
HETATM   15  C   UNL     1     -10.433  11.376  65.030  1.00  0.00    -0.361 A  
HETATM   16  C   UNL     1     -10.976  12.125  66.088  1.00  0.00    -0.335 A  
ENDBRANCH   7   8
ENDBRANCH   2   7
TORSDOF 2
ENDMDL
MODEL       49
REMARK 921   NORMALIZED FREE ENERGY PREDICTED BY IDOCK:   -4.48 KCAL/MOL
REMARK 922        TOTAL FREE ENERGY PREDICTED BY IDOCK:   -5.40 KCAL/MOL
REMARK 923 INTER-LIGAND FREE ENERGY PREDICTED BY IDOCK:   -5.53 KCAL/MOL
REMARK 924 INTRA-LIGAND FREE ENERGY PREDICTED BY IDOCK:    0.13 KCAL/MOL
REMARK 927      BINDING AFFINITY PREDICTED BY RF-SCORE:    0.00 PKD
ROOT
HETATM    1  N   UNL     1     -12.244   7.438  70.558  1.00  0.00    -0.547 N  
HETATM    2  S   UNL     1     -12.751   8.767  71.461  1.00  0.00    -0.317 S  
HETATM    3  H1  UNL     1     -11.225   7.471  70.591  1.00  0.00     0.000 HD 
HETATM    4  H2  UNL     1     -12.828   6.750  70.082  1.00  0.00     0.000 HD 
HETATM    5  O   UNL     1     -14.193   8.719  71.414  1.00  0.00    -0.368 OA 
HETATM    6  O   UNL     1     -12.015   8.637  72.699  1.00  0.00    -0.340 OA 
ENDROOT
BRANCH   2   7
HETATM    7  C   UNL     1     -12.114  10.136  70.490  1.00  0.00    -0.291 C  
BRANCH   7   8
HETATM    8  C   UNL     1     -12.536  11.459  71.014  1.00  0.00    -0.386 A  
HETATM    9  N   UNL     1     -13.355  11.507  72.078  1.00  0.00    -0.422 NA 
HETATM   10  O   UNL     1     -13.596  12.848  72.314  1.00  0.00    -0.560 OA 
HETATM   11  C   UNL     1     -12.950  13.597  71.384  1.00  0.00    -0.347 A  
HETATM   12  C   UNL     1     -12.961  14.987  71.299  1.00  0.00    -0.448 A  
HETATM   13  C   UNL     1     -12.221  15.551  70.255  1.00  0.00    -0.432 A  
HETATM   14  C   UNL     1     -11.524  14.747  69.350  1.00  0.00    -0.330 A  
HETATM   15  C   UNL     1     -11.541  13.349  69.462  1.00  0.00    -0.352 A  
HETATM   16  C   UNL     1     -12.263  12.763  70.516  1.00  0.00    -0.389 A  
ENDBRANCH   7   8
ENDBRANCH   2   7
TORSDOF 2
ENDMDL
MODEL       50
REMARK 921   NORMALIZED FREE ENERGY PREDICTED BY IDOCK:   -4.47 KCAL/MOL
REMARK 922        TOTAL FREE ENERGY PREDICTED BY IDOCK:   -5.39 KCAL/MOL
REMARK 923 INTER-LIGAND FREE ENERGY PREDICTED BY IDOCK:   -4.97 KCAL/MOL
REMARK 924 INTRA-LIGAND FREE ENERGY PREDICTED BY IDOCK:   -0.42 KCAL/MOL
REMARK 927      BINDING AFFINITY PREDICTED BY RF-SCORE:    0.00 PKD
ROOT
HETATM    1  N   UNL     1      -9.814  11.758  68.945  1.00  0.00    -0.402 N  
HETATM    2  S   UNL     1     -11.420  11.387  69.294  1.00  0.00    -0.334 S  
HETATM    3  H1  UNL     1      -9.467  12.231  69.780  1.00  0.00     0.000 HD 
HETATM    4  H2  UNL     1      -9.301  11.554  68.088  1.00  0.00     0.000 HD 
HETATM    5  O   UNL     1     -11.911  10.717  68.113  1.00  0.00    -0.527 OA 
HETATM    6  O   UNL     1     -11.346  10.728  70.578  1.00  0.00    -0.307 OA 
ENDROOT
BRANCH   2   7
HETATM    7  C   UNL     1     -12.147  13.020  69.465  1.00  0.00    -0.230 C  
BRANCH   7   8
HETATM    8  C   UNL     1     -11.474  14.040  68.622  1.00  0.00    -0.302 A  
HETATM    9  N   UNL     1     -10.690  14.958  69.211  1.00  0.00    -0.243 NA 
HETATM   10  O   UNL     1     -10.235  15.778  68.195  1.00  0.00    -0.225 OA 
HETATM   11  C   UNL     1     -10.761  15.373  67.012  1.00  0.00    -0.321 A  
HETATM   12  C   UNL     1     -10.532  15.958  65.769  1.00  0.00    -0.386 A  
HETATM   13  C   UNL     1     -11.181  15.373  64.677  1.00  0.00    -0.374 A  
HETATM   14  C   UNL     1     -12.018  14.268  64.846  1.00  0.00    -0.430 A  
HETATM   15  C   UNL     1     -12.232  13.708  66.115  1.00  0.00    -0.490 A  
HETATM   16  C   UNL     1     -11.573  14.270  67.222  1.00  0.00    -0.401 A  
ENDBRANCH   7   8
ENDBRANCH   2   7
TORSDOF 2
ENDMDL
MODEL       51
REMARK 921   NORMALIZED FREE ENERGY PREDICTED BY IDOCK:   -4.45 KCAL/MOL
REMARK 922        TOTAL FREE ENERGY PREDICTED BY IDOCK:   -5.37 KCAL/MOL
REMARK 923 INTER-LIGAND FREE ENERGY PREDICTED BY IDOCK:   -4.94 KCAL/MOL
REMARK 924 INTRA-LIGAND FREE ENERGY PREDICTED BY IDOCK:   -0.44 KCAL/MOL
REMARK 927      BINDING AFFINITY PREDICTED BY RF-SCORE:    0.00 PKD
ROOT
HETATM    1  N   UNL     1      -9.095  13.973  66.471  1.00  0.00    -0.437 N  
HETATM    2  S   UNL     1     -10.690  14.345  66.071  1.00  0.00    -0.313 S  
HETATM    3  H1  UNL     1      -9.163  13.407  67.317  1.00  0.00     0.000 HD 
HETATM    4  H2  UNL     1      -8.249  14.252  65.976  1.00  0.00     0.000 HD 
HETATM    5  O   UNL     1     -10.594  15.146  64.874  1.00  0.00    -0.411 OA 
HETATM    6  O   UNL     1     -11.353  13.061  66.088  1.00  0.00    -0.295 OA 
ENDROOT
BRANCH   2   7
HETATM    7  C   UNL     1     -11.200  15.337  67.478  1.00  0.00    -0.317 C  
BRANCH   7   8
HETATM    8  C   UNL     1     -10.188  16.351  67.865  1.00  0.00    -0.268 A  
HETATM    9  N   UNL     1      -9.254  16.025  68.774  1.00  0.00    -0.212 NA 
HETATM   10  O   UNL     1      -8.484  17.160  68.953  1.00  0.00    -0.259 OA 
HETATM   11  C   UNL     1      -8.966  18.164  68.179  1.00  0.00    -0.290 A  
HETATM   12  C   UNL     1      -8.451  19.455  68.096  1.00  0.00    -0.367 A  
HETATM   13  C   UNL     1      -9.110  20.333  67.229  1.00  0.00    -0.504 A  
HETATM   14  C   UNL     1     -10.229  19.921  66.501  1.00  0.00    -0.611 A  
HETATM   15  C   UNL     1     -10.725  18.613  66.615  1.00  0.00    -0.316 A  
HETATM   16  C   UNL     1     -10.065  17.710  67.466  1.00  0.00    -0.337 A  
ENDBRANCH   7   8
ENDBRANCH   2   7
TORSDOF 2
ENDMDL
MODEL       52
REMARK 921   NORMALIZED FREE ENERGY PREDICTED BY IDOCK:   -4.42 KCAL/MOL
REMARK 922        TOTAL FREE ENERGY PREDICTED BY IDOCK:   -5.33 KCAL/MOL
REMARK 923 INTER-LIGAND FREE ENERGY PREDICTED BY IDOCK:   -4.91 KCAL/MOL
REMARK 924 INTRA-LIGAND FREE ENERGY PREDICTED BY IDOCK:   -0.42 KCAL/MOL
REMARK 927      BINDING AFFINITY PREDICTED BY RF-SCORE:    0.00 PKD
ROOT
HETATM    1  N   UNL     1      -9.537  19.163  68.028  1.00  0.00    -0.316 N  
HETATM    2  S   UNL     1      -9.149  19.047  66.392  1.00  0.00    -0.301 S  
HETATM    3  H1  UNL     1      -8.650  19.048  68.517  1.00  0.00     0.000 HD 
HETATM    4  H2  UNL     1     -10.458  19.315  68.439  1.00  0.00     0.000 HD 
HETATM    5  O   UNL     1     -10.406  19.210  65.701  1.00  0.00    -0.511 OA 
HETATM    6  O   UNL     1      -8.057  19.980  66.235  1.00  0.00    -0.316 OA 
ENDROOT
BRANCH   2   7
HETATM    7  C   UNL     1      -8.557  17.356  66.274  1.00  0.00    -0.211 C  
BRANCH   7   8
HETATM    8  C   UNL     1      -9.529  16.367  66.803  1.00  0.00    -0.247 A  
HETATM    9  N   UNL     1      -9.507  16.069  68.113  1.00  0.00    -0.206 NA 
HETATM   10  O   UNL     1     -10.487  15.112  68.302  1.00  0.00    -0.234 OA 
HETATM   11  C   UNL     1     -11.073  14.819  67.113  1.00  0.00    -0.333 A  
HETATM   12  C   UNL     1     -12.099  13.900  66.910  1.00  0.00    -0.467 A  
HETATM   13  C   UNL     1     -12.553  13.757  65.595  1.00  0.00    -0.551 A  
HETATM   14  C   UNL     1     -11.989  14.498  64.554  1.00  0.00    -0.482 A  
HETATM   15  C   UNL     1     -10.951  15.411  64.795  1.00  0.00    -0.411 A  
HETATM   16  C   UNL     1     -10.493  15.583  66.113  1.00  0.00    -0.323 A  
ENDBRANCH   7   8
ENDBRANCH   2   7
TORSDOF 2
ENDMDL
MODEL       53
REMARK 921   NORMALIZED FREE ENERGY PREDICTED BY IDOCK:   -4.40 KCAL/MOL
REMARK 922        TOTAL FREE ENERGY PREDICTED BY IDOCK:   -5.31 KCAL/MOL
REMARK 923 INTER-LIGAND FREE ENERGY PREDICTED BY IDOCK:   -5.04 KCAL/MOL
REMARK 924 INTRA-LIGAND FREE ENERGY PREDICTED BY IDOCK:   -0.27 KCAL/MOL
REMARK 927      BINDING AFFINITY PREDICTED BY RF-SCORE:    0.00 PKD
ROOT
HETATM    1  N   UNL     1     -10.587  13.623  63.969  1.00  0.00    -0.472 N  
HETATM    2  S   UNL     1     -12.155  13.946  64.497  1.00  0.00    -0.440 S  
HETATM    3  H1  UNL     1     -10.252  12.882  64.584  1.00  0.00     0.000 HD 
HETATM    4  H2  UNL     1     -10.085  14.070  63.203  1.00  0.00     0.000 HD 
HETATM    5  O   UNL     1     -12.630  14.995  63.626  1.00  0.00    -0.680 OA 
HETATM    6  O   UNL     1     -12.775  12.641  64.541  1.00  0.00    -0.650 OA 
ENDROOT
BRANCH   2   7
HETATM    7  C   UNL     1     -11.864  14.562  66.158  1.00  0.00    -0.336 C  
BRANCH   7   8
HETATM    8  C   UNL     1     -10.571  15.278  66.288  1.00  0.00    -0.309 A  
HETATM    9  N   UNL     1     -10.453  16.511  65.769  1.00  0.00    -0.391 NA 
HETATM   10  O   UNL     1      -9.150  16.905  66.012  1.00  0.00    -0.448 OA 
HETATM   11  C   UNL     1      -8.484  15.907  66.646  1.00  0.00    -0.287 A  
HETATM   12  C   UNL     1      -7.152  15.939  67.050  1.00  0.00    -0.207 A  
HETATM   13  C   UNL     1      -6.669  14.793  67.690  1.00  0.00    -0.198 A  
HETATM   14  C   UNL     1      -7.492  13.683  67.896  1.00  0.00    -0.158 A  
HETATM   15  C   UNL     1      -8.829  13.684  67.469  1.00  0.00    -0.205 A  
HETATM   16  C   UNL     1      -9.338  14.833  66.841  1.00  0.00    -0.256 A  
ENDBRANCH   7   8
ENDBRANCH   2   7
TORSDOF 2
ENDMDL
MODEL       54
REMARK 921   NORMALIZED FREE ENERGY PREDICTED BY IDOCK:   -4.35 KCAL/MOL
REMARK 922        TOTAL FREE ENERGY PREDICTED BY IDOCK:   -5.25 KCAL/MOL
REMARK 923 INTER-LIGAND FREE ENERGY PREDICTED BY IDOCK:   -4.84 KCAL/MOL
REMARK 924 INTRA-LIGAND FREE ENERGY PREDICTED BY IDOCK:   -0.42 KCAL/MOL
REMARK 927      BINDING AFFINITY PREDICTED BY RF-SCORE:    0.00 PKD
ROOT
HETATM    1  N   UNL     1     -12.222   7.463  70.396  1.00  0.00    -0.537 N  
HETATM    2  S   UNL     1     -12.115   8.796  71.422  1.00  0.00    -0.317 S  
HETATM    3  H1  UNL     1     -11.365   6.936  70.561  1.00  0.00     0.000 HD 
HETATM    4  H2  UNL     1     -12.979   7.234  69.752  1.00  0.00     0.000 HD 
HETATM    5  O   UNL     1     -13.329   9.541  71.190  1.00  0.00    -0.337 OA 
HETATM    6  O   UNL     1     -11.804   8.211  72.707  1.00  0.00    -0.389 OA 
ENDROOT
BRANCH   2   7
HETATM    7  C   UNL     1     -10.686   9.657  70.759  1.00  0.00    -0.331 C  
BRANCH   7   8
HETATM    8  C   UNL     1     -10.891  10.124  69.366  1.00  0.00    -0.241 A  
HETATM    9  N   UNL     1     -10.648   9.277  68.352  1.00  0.00    -0.212 NA 
HETATM   10  O   UNL     1     -10.892   9.990  67.192  1.00  0.00    -0.243 OA 
HETATM   11  C   UNL     1     -11.253  11.259  67.506  1.00  0.00    -0.291 A  
HETATM   12  C   UNL     1     -11.573  12.268  66.601  1.00  0.00    -0.438 A  
HETATM   13  C   UNL     1     -11.918  13.507  67.148  1.00  0.00    -0.426 A  
HETATM   14  C   UNL     1     -11.925  13.707  68.531  1.00  0.00    -0.396 A  
HETATM   15  C   UNL     1     -11.590  12.669  69.413  1.00  0.00    -0.369 A  
HETATM   16  C   UNL     1     -11.259  11.410  68.884  1.00  0.00    -0.310 A  
ENDBRANCH   7   8
ENDBRANCH   2   7
TORSDOF 2
ENDMDL
MODEL       55
REMARK 921   NORMALIZED FREE ENERGY PREDICTED BY IDOCK:   -4.32 KCAL/MOL
REMARK 922        TOTAL FREE ENERGY PREDICTED BY IDOCK:   -5.22 KCAL/MOL
REMARK 923 INTER-LIGAND FREE ENERGY PREDICTED BY IDOCK:   -5.07 KCAL/MOL
REMARK 924 INTRA-LIGAND FREE ENERGY PREDICTED BY IDOCK:   -0.16 KCAL/MOL
REMARK 927      BINDING AFFINITY PREDICTED BY RF-SCORE:    0.00 PKD
ROOT
HETATM    1  N   UNL     1      -8.743  15.593  66.930  1.00  0.00    -0.230 N  
HETATM    2  S   UNL     1      -9.793  16.032  68.173  1.00  0.00    -0.224 S  
HETATM    3  H1  UNL     1      -9.286  15.711  66.075  1.00  0.00     0.000 HD 
HETATM    4  H2  UNL     1      -7.777  15.279  67.014  1.00  0.00     0.000 HD 
HETATM    5  O   UNL     1      -9.024  15.865  69.384  1.00  0.00    -0.248 OA 
HETATM    6  O   UNL     1     -10.298  17.319  67.753  1.00  0.00    -0.326 OA 
ENDROOT
BRANCH   2   7
HETATM    7  C   UNL     1     -11.070  14.777  68.036  1.00  0.00    -0.286 C  
BRANCH   7   8
HETATM    8  C   UNL     1     -11.844  14.606  69.290  1.00  0.00    -0.321 A  
HETATM    9  N   UNL     1     -12.310  15.695  69.923  1.00  0.00    -0.311 NA 
HETATM   10  O   UNL     1     -12.953  15.233  71.057  1.00  0.00    -0.395 OA 
HETATM   11  C   UNL     1     -12.851  13.881  71.117  1.00  0.00    -0.351 A  
HETATM   12  C   UNL     1     -13.374  13.064  72.117  1.00  0.00    -0.622 A  
HETATM   13  C   UNL     1     -13.149  11.691  71.977  1.00  0.00    -0.433 A  
HETATM   14  C   UNL     1     -12.428  11.185  70.893  1.00  0.00    -0.509 A  
HETATM   15  C   UNL     1     -11.910  12.039  69.907  1.00  0.00    -0.405 A  
HETATM   16  C   UNL     1     -12.142  13.421  70.019  1.00  0.00    -0.404 A  
ENDBRANCH   7   8
ENDBRANCH   2   7
TORSDOF 2
ENDMDL
MODEL       56
REMARK 921   NORMALIZED FREE ENERGY PREDICTED BY IDOCK:   -4.32 KCAL/MOL
REMARK 922        TOTAL FREE ENERGY PREDICTED BY IDOCK:   -5.22 KCAL/MOL
REMARK 923 INTER-LIGAND FREE ENERGY PREDICTED BY IDOCK:   -4.84 KCAL/MOL
REMARK 924 INTRA-LIGAND FREE ENERGY PREDICTED BY IDOCK:   -0.39 KCAL/MOL
REMARK 927      BINDING AFFINITY PREDICTED BY RF-SCORE:    0.00 PKD
ROOT
HETATM    1  N   UNL     1     -11.007   9.247  67.377  1.00  0.00    -0.404 N  
HETATM    2  S   UNL     1     -10.615  10.882  67.257  1.00  0.00    -0.267 S  
HETATM    3  H1  UNL     1     -11.649   9.189  68.168  1.00  0.00     0.000 HD 
HETATM    4  H2  UNL     1     -10.675   8.484  66.789  1.00  0.00     0.000 HD 
HETATM    5  O   UNL     1      -9.707  10.964  66.137  1.00  0.00    -0.195 OA 
HETATM    6  O   UNL     1     -11.902  11.541  67.255  1.00  0.00    -0.609 OA 
ENDROOT
BRANCH   2   7
HETATM    7  C   UNL     1      -9.761  11.171  68.809  1.00  0.00    -0.185 C  
BRANCH   7   8
HETATM    8  C   UNL     1     -10.079  10.151  69.839  1.00  0.00    -0.222 A  
HETATM    9  N   UNL     1      -9.207   9.153  70.059  1.00  0.00    -0.177 NA 
HETATM   10  O   UNL     1      -9.777   8.355  71.033  1.00  0.00    -0.161 OA 
HETATM   11  C   UNL     1     -10.991   8.854  71.376  1.00  0.00    -0.310 A  
HETATM   12  C   UNL     1     -11.860   8.317  72.323  1.00  0.00    -0.451 A  
HETATM   13  C   UNL     1     -13.066   8.999  72.517  1.00  0.00    -0.450 A  
HETATM   14  C   UNL     1     -13.368  10.149  71.784  1.00  0.00    -0.485 A  
HETATM   15  C   UNL     1     -12.471  10.659  70.833  1.00  0.00    -0.495 A  
HETATM   16  C   UNL     1     -11.246   9.999  70.637  1.00  0.00    -0.425 A  
ENDBRANCH   7   8
ENDBRANCH   2   7
TORSDOF 2
ENDMDL
MODEL       57
REMARK 921   NORMALIZED FREE ENERGY PREDICTED BY IDOCK:   -4.31 KCAL/MOL
REMARK 922        TOTAL FREE ENERGY PREDICTED BY IDOCK:   -5.22 KCAL/MOL
REMARK 923 INTER-LIGAND FREE ENERGY PREDICTED BY IDOCK:   -4.84 KCAL/MOL
REMARK 924 INTRA-LIGAND FREE ENERGY PREDICTED BY IDOCK:   -0.38 KCAL/MOL
REMARK 927      BINDING AFFINITY PREDICTED BY RF-SCORE:    0.00 PKD
ROOT
HETATM    1  N   UNL     1      -7.663  16.055  66.810  1.00  0.00    -0.243 N  
HETATM    2  S   UNL     1      -8.044  17.691  66.674  1.00  0.00    -0.272 S  
HETATM    3  H1  UNL     1      -7.853  15.664  65.888  1.00  0.00     0.000 HD 
HETATM    4  H2  UNL     1      -7.317  15.564  67.634  1.00  0.00     0.000 HD 
HETATM    5  O   UNL     1      -7.774  18.244  67.980  1.00  0.00    -0.246 OA 
HETATM    6  O   UNL     1      -7.323  18.111  65.495  1.00  0.00    -0.543 OA 
ENDROOT
BRANCH   2   7
HETATM    7  C   UNL     1      -9.809  17.631  66.346  1.00  0.00    -0.309 C  
BRANCH   7   8
HETATM    8  C   UNL     1     -10.441  16.378  66.827  1.00  0.00    -0.273 A  
HETATM    9  N   UNL     1     -10.556  16.171  68.150  1.00  0.00    -0.278 NA 
HETATM   10  O   UNL     1     -11.145  14.928  68.292  1.00  0.00    -0.260 OA 
HETATM   11  C   UNL     1     -11.357  14.383  67.068  1.00  0.00    -0.346 A  
HETATM   12  C   UNL     1     -11.929  13.139  66.814  1.00  0.00    -0.434 A  
HETATM   13  C   UNL     1     -12.053  12.775  65.469  1.00  0.00    -0.517 A  
HETATM   14  C   UNL     1     -11.610  13.622  64.451  1.00  0.00    -0.421 A  
HETATM   15  C   UNL     1     -11.031  14.866  64.744  1.00  0.00    -0.390 A  
HETATM   16  C   UNL     1     -10.917  15.259  66.089  1.00  0.00    -0.307 A  
ENDBRANCH   7   8
ENDBRANCH   2   7
TORSDOF 2
ENDMDL
MODEL       58
REMARK 921   NORMALIZED FREE ENERGY PREDICTED BY IDOCK:   -4.31 KCAL/MOL
REMARK 922        TOTAL FREE ENERGY PREDICTED BY IDOCK:   -5.21 KCAL/MOL
REMARK 923 INTER-LIGAND FREE ENERGY PREDICTED BY IDOCK:   -5.18 KCAL/MOL
REMARK 924 INTRA-LIGAND FREE ENERGY PREDICTED BY IDOCK:   -0.03 KCAL/MOL
REMARK 927      BINDING AFFINITY PREDICTED BY RF-SCORE:    0.00 PKD
ROOT
HETATM    1  N   UNL     1     -11.847   7.734  70.518  1.00  0.00    -0.479 N  
HETATM    2  S   UNL     1     -11.661   8.787  71.821  1.00  0.00    -0.372 S  
HETATM    3  H1  UNL     1     -11.847   8.335  69.694  1.00  0.00     0.000 HD 
HETATM    4  H2  UNL     1     -11.939   6.719  70.548  1.00  0.00     0.000 HD 
HETATM    5  O   UNL     1     -11.661   7.936  72.987  1.00  0.00    -0.351 OA 
HETATM    6  O   UNL     1     -10.515   9.587  71.450  1.00  0.00    -0.317 OA 
ENDROOT
BRANCH   2   7
HETATM    7  C   UNL     1     -13.167   9.760  71.725  1.00  0.00    -0.436 C  
BRANCH   7   8
HETATM    8  C   UNL     1     -12.910  11.189  71.418  1.00  0.00    -0.439 A  
HETATM    9  N   UNL     1     -13.246  12.121  72.325  1.00  0.00    -0.366 NA 
HETATM   10  O   UNL     1     -12.923  13.340  71.757  1.00  0.00    -0.358 OA 
HETATM   11  C   UNL     1     -12.423  13.143  70.511  1.00  0.00    -0.248 A  
HETATM   12  C   UNL     1     -11.991  14.136  69.635  1.00  0.00    -0.389 A  
HETATM   13  C   UNL     1     -11.510  13.704  68.395  1.00  0.00    -0.346 A  
HETATM   14  C   UNL     1     -11.481  12.346  68.067  1.00  0.00    -0.377 A  
HETATM   15  C   UNL     1     -11.931  11.373  68.973  1.00  0.00    -0.387 A  
HETATM   16  C   UNL     1     -12.400  11.786  70.232  1.00  0.00    -0.320 A  
ENDBRANCH   7   8
ENDBRANCH   2   7
TORSDOF 2
ENDMDL
MODEL       59
REMARK 921   NORMALIZED FREE ENERGY PREDICTED BY IDOCK:   -4.30 KCAL/MOL
REMARK 922        TOTAL FREE ENERGY PREDICTED BY IDOCK:   -5.20 KCAL/MOL
REMARK 923 INTER-LIGAND FREE ENERGY PREDICTED BY IDOCK:   -5.02 KCAL/MOL
REMARK 924 INTRA-LIGAND FREE ENERGY PREDICTED BY IDOCK:   -0.18 KCAL/MOL
REMARK 927      BINDING AFFINITY PREDICTED BY RF-SCORE:    0.00 PKD
ROOT
HETATM    1  N   UNL     1     -13.445  15.698  70.754  1.00  0.00    -0.797 N  
HETATM    2  S   UNL     1     -12.189  14.595  70.965  1.00  0.00    -0.356 S  
HETATM    3  H1  UNL     1     -14.294  15.169  70.953  1.00  0.00     0.000 HD 
HETATM    4  H2  UNL     1     -13.373  16.679  70.487  1.00  0.00     0.000 HD 
HETATM    5  O   UNL     1     -10.987  15.344  70.684  1.00  0.00    -0.313 OA 
HETATM    6  O   UNL     1     -12.453  14.022  72.265  1.00  0.00    -0.215 OA 
ENDROOT
BRANCH   2   7
HETATM    7  C   UNL     1     -12.528  13.399  69.669  1.00  0.00    -0.009 C  
BRANCH   7   8
HETATM    8  C   UNL     1     -11.846  12.100  69.892  1.00  0.00    -0.319 A  
HETATM    9  N   UNL     1     -10.727  11.824  69.202  1.00  0.00    -0.172 NA 
HETATM   10  O   UNL     1     -10.343  10.554  69.590  1.00  0.00    -0.231 OA 
HETATM   11  C   UNL     1     -11.237  10.061  70.484  1.00  0.00    -0.336 A  
HETATM   12  C   UNL     1     -11.182   8.810  71.093  1.00  0.00    -0.339 A  
HETATM   13  C   UNL     1     -12.214   8.509  71.987  1.00  0.00    -0.429 A  
HETATM   14  C   UNL     1     -13.242   9.422  72.234  1.00  0.00    -0.528 A  
HETATM   15  C   UNL     1     -13.269  10.672  71.597  1.00  0.00    -0.495 A  
HETATM   16  C   UNL     1     -12.230  11.001  70.710  1.00  0.00    -0.480 A  
ENDBRANCH   7   8
ENDBRANCH   2   7
TORSDOF 2
ENDMDL
MODEL       60
REMARK 921   NORMALIZED FREE ENERGY PREDICTED BY IDOCK:   -4.28 KCAL/MOL
REMARK 922        TOTAL FREE ENERGY PREDICTED BY IDOCK:   -5.18 KCAL/MOL
REMARK 923 INTER-LIGAND FREE ENERGY PREDICTED BY IDOCK:   -4.79 KCAL/MOL
REMARK 924 INTRA-LIGAND FREE ENERGY PREDICTED BY IDOCK:   -0.39 KCAL/MOL
REMARK 927      BINDING AFFINITY PREDICTED BY RF-SCORE:    0.00 PKD
ROOT
HETATM    1  N   UNL     1      -9.801  14.557  69.674  1.00  0.00    -0.405 N  
HETATM    2  S   UNL     1     -11.223  15.146  68.987  1.00  0.00    -0.293 S  
HETATM    3  H1  UNL     1      -9.296  14.125  68.901  1.00  0.00     0.000 HD 
HETATM    4  H2  UNL     1      -9.510  14.620  70.649  1.00  0.00     0.000 HD 
HETATM    5  O   UNL     1     -11.938  15.758  70.082  1.00  0.00    -0.353 OA 
HETATM    6  O   UNL     1     -10.761  15.906  67.848  1.00  0.00    -0.294 OA 
ENDROOT
BRANCH   2   7
HETATM    7  C   UNL     1     -12.027  13.632  68.452  1.00  0.00    -0.356 C  
BRANCH   7   8
HETATM    8  C   UNL     1     -11.320  12.411  68.912  1.00  0.00    -0.294 A  
HETATM    9  N   UNL     1     -10.224  12.004  68.251  1.00  0.00    -0.202 NA 
HETATM   10  O   UNL     1      -9.810  10.843  68.878  1.00  0.00    -0.191 OA 
HETATM   11  C   UNL     1     -10.662  10.543  69.890  1.00  0.00    -0.247 A  
HETATM   12  C   UNL     1     -10.568   9.446  70.743  1.00  0.00    -0.371 A  
HETATM   13  C   UNL     1     -11.562   9.332  71.720  1.00  0.00    -0.458 A  
HETATM   14  C   UNL     1     -12.592  10.272  71.813  1.00  0.00    -0.488 A  
HETATM   15  C   UNL     1     -12.659  11.361  70.931  1.00  0.00    -0.453 A  
HETATM   16  C   UNL     1     -11.658  11.505  69.954  1.00  0.00    -0.387 A  
ENDBRANCH   7   8
ENDBRANCH   2   7
TORSDOF 2
ENDMDL
MODEL       61
REMARK 921   NORMALIZED FREE ENERGY PREDICTED BY IDOCK:   -4.27 KCAL/MOL
REMARK 922        TOTAL FREE ENERGY PREDICTED BY IDOCK:   -5.17 KCAL/MOL
REMARK 923 INTER-LIGAND FREE ENERGY PREDICTED BY IDOCK:   -4.89 KCAL/MOL
REMARK 924 INTRA-LIGAND FREE ENERGY PREDICTED BY IDOCK:   -0.28 KCAL/MOL
REMARK 927      BINDING AFFINITY PREDICTED BY RF-SCORE:    0.00 PKD
ROOT
HETATM    1  N   UNL     1      -9.763  12.617  67.099  1.00  0.00    -0.207 N  
HETATM    2  S   UNL     1     -11.263  12.163  66.481  1.00  0.00    -0.345 S  
HETATM    3  H1  UNL     1      -9.939  12.837  68.080  1.00  0.00     0.000 HD 
HETATM    4  H2  UNL     1      -8.874  12.662  66.602  1.00  0.00     0.000 HD 
HETATM    5  O   UNL     1     -11.014  11.851  65.094  1.00  0.00    -0.299 OA 
HETATM    6  O   UNL     1     -11.732  11.171  67.422  1.00  0.00    -0.564 OA 
ENDROOT
BRANCH   2   7
HETATM    7  C   UNL     1     -12.205  13.683  66.647  1.00  0.00    -0.389 C  
BRANCH   7   8
HETATM    8  C   UNL     1     -11.389  14.896  66.391  1.00  0.00    -0.308 A  
HETATM    9  N   UNL     1     -10.955  15.138  65.142  1.00  0.00    -0.392 NA 
HETATM   10  O   UNL     1     -10.208  16.299  65.217  1.00  0.00    -0.548 OA 
HETATM   11  C   UNL     1     -10.171  16.735  66.501  1.00  0.00    -0.316 A  
HETATM   12  C   UNL     1      -9.512  17.872  66.962  1.00  0.00    -0.272 A  
HETATM   13  C   UNL     1      -9.607  18.132  68.333  1.00  0.00    -0.345 A  
HETATM   14  C   UNL     1     -10.321  17.280  69.180  1.00  0.00    -0.290 A  
HETATM   15  C   UNL     1     -10.968  16.139  68.681  1.00  0.00    -0.336 A  
HETATM   16  C   UNL     1     -10.900  15.871  67.303  1.00  0.00    -0.279 A  
ENDBRANCH   7   8
ENDBRANCH   2   7
TORSDOF 2
ENDMDL
MODEL       62
REMARK 921   NORMALIZED FREE ENERGY PREDICTED BY IDOCK:   -4.24 KCAL/MOL
REMARK 922        TOTAL FREE ENERGY PREDICTED BY IDOCK:   -5.14 KCAL/MOL
REMARK 923 INTER-LIGAND FREE ENERGY PREDICTED BY IDOCK:   -4.79 KCAL/MOL
REMARK 924 INTRA-LIGAND FREE ENERGY PREDICTED BY IDOCK:   -0.35 KCAL/MOL
REMARK 927      BINDING AFFINITY PREDICTED BY RF-SCORE:    0.00 PKD
ROOT
HETATM    1  N   UNL     1     -13.770  15.525  70.598  1.00  0.00    -0.846 N  
HETATM    2  S   UNL     1     -12.668  14.785  71.636  1.00  0.00    -0.354 S  
HETATM    3  H1  UNL     1     -14.360  14.766  70.258  1.00  0.00     0.000 HD 
HETATM    4  H2  UNL     1     -13.834  16.515  70.363  1.00  0.00     0.000 HD 
HETATM    5  O   UNL     1     -11.834  15.860  72.119  1.00  0.00    -0.430 OA 
HETATM    6  O   UNL     1     -13.504  14.004  72.519  1.00  0.00    -0.481 OA 
ENDROOT
BRANCH   2   7
HETATM    7  C   UNL     1     -11.765  13.716  70.512  1.00  0.00    -0.099 C  
BRANCH   7   8
HETATM    8  C   UNL     1     -11.639  14.288  69.149  1.00  0.00    -0.305 A  
HETATM    9  N   UNL     1     -12.270  13.685  68.128  1.00  0.00    -0.251 NA 
HETATM   10  O   UNL     1     -11.948  14.413  66.997  1.00  0.00    -0.409 OA 
HETATM   11  C   UNL     1     -11.112  15.428  67.332  1.00  0.00    -0.311 A  
HETATM   12  C   UNL     1     -10.574  16.368  66.458  1.00  0.00    -0.235 A  
HETATM   13  C   UNL     1      -9.731  17.331  67.022  1.00  0.00    -0.267 A  
HETATM   14  C   UNL     1      -9.447  17.326  68.390  1.00  0.00    -0.283 A  
HETATM   15  C   UNL     1     -10.002  16.357  69.241  1.00  0.00    -0.259 A  
HETATM   16  C   UNL     1     -10.867  15.393  68.696  1.00  0.00    -0.259 A  
ENDBRANCH   7   8
ENDBRANCH   2   7
TORSDOF 2
ENDMDL
MODEL       63
REMARK 921   NORMALIZED FREE ENERGY PREDICTED BY IDOCK:   -4.24 KCAL/MOL
REMARK 922        TOTAL FREE ENERGY PREDICTED BY IDOCK:   -5.13 KCAL/MOL
REMARK 923 INTER-LIGAND FREE ENERGY PREDICTED BY IDOCK:   -4.75 KCAL/MOL
REMARK 924 INTRA-LIGAND FREE ENERGY PREDICTED BY IDOCK:   -0.38 KCAL/MOL
REMARK 927      BINDING AFFINITY PREDICTED BY RF-SCORE:    0.00 PKD
ROOT
HETATM    1  N   UNL     1      -9.830  13.098  68.472  1.00  0.00    -0.350 N  
HETATM    2  S   UNL     1     -11.130  12.622  67.511  1.00  0.00    -0.288 S  
HETATM    3  H1  UNL     1     -10.255  13.490  69.312  1.00  0.00     0.000 HD 
HETATM    4  H2  UNL     1      -8.837  13.013  68.260  1.00  0.00     0.000 HD 
HETATM    5  O   UNL     1     -10.528  12.068  66.322  1.00  0.00    -0.228 OA 
HETATM    6  O   UNL     1     -11.942  11.828  68.405  1.00  0.00    -0.443 OA 
ENDROOT
BRANCH   2   7
HETATM    7  C   UNL     1     -11.926  14.194  67.164  1.00  0.00    -0.426 C  
BRANCH   7   8
HETATM    8  C   UNL     1     -11.397  15.303  67.996  1.00  0.00    -0.338 A  
HETATM    9  N   UNL     1     -11.555  15.250  69.329  1.00  0.00    -0.311 NA 
HETATM   10  O   UNL     1     -10.999  16.416  69.825  1.00  0.00    -0.338 OA 
HETATM   11  C   UNL     1     -10.536  17.172  68.798  1.00  0.00    -0.336 A  
HETATM   12  C   UNL     1      -9.915  18.413  68.910  1.00  0.00    -0.374 A  
HETATM   13  C   UNL     1      -9.516  19.018  67.714  1.00  0.00    -0.353 A  
HETATM   14  C   UNL     1      -9.746  18.400  66.482  1.00  0.00    -0.353 A  
HETATM   15  C   UNL     1     -10.382  17.151  66.407  1.00  0.00    -0.307 A  
HETATM   16  C   UNL     1     -10.772  16.517  67.600  1.00  0.00    -0.311 A  
ENDBRANCH   7   8
ENDBRANCH   2   7
TORSDOF 2
ENDMDL
MODEL       64
REMARK 921   NORMALIZED FREE ENERGY PREDICTED BY IDOCK:   -4.23 KCAL/MOL
REMARK 922        TOTAL FREE ENERGY PREDICTED BY IDOCK:   -5.12 KCAL/MOL
REMARK 923 INTER-LIGAND FREE ENERGY PREDICTED BY IDOCK:   -4.70 KCAL/MOL
REMARK 924 INTRA-LIGAND FREE ENERGY PREDICTED BY IDOCK:   -0.42 KCAL/MOL
REMARK 927      BINDING AFFINITY PREDICTED BY RF-SCORE:    0.00 PKD
ROOT
HETATM    1  N   UNL     1     -10.752   8.167  67.292  1.00  0.00    -0.485 N  
HETATM    2  S   UNL     1      -9.118   8.481  67.025  1.00  0.00    -0.148 S  
HETATM    3  H1  UNL     1     -11.245   8.756  66.621  1.00  0.00     0.000 HD 
HETATM    4  H2  UNL     1     -11.159   7.527  67.974  1.00  0.00     0.000 HD 
HETATM    5  O   UNL     1      -8.420   7.646  67.974  1.00  0.00    -0.123 OA 
HETATM    6  O   UNL     1      -8.968   8.316  65.598  1.00  0.00    -0.171 OA 
ENDROOT
BRANCH   2   7
HETATM    7  C   UNL     1      -8.999  10.215  67.475  1.00  0.00    -0.131 C  
BRANCH   7   8
HETATM    8  C   UNL     1     -10.171  11.008  67.027  1.00  0.00    -0.211 A  
HETATM    9  N   UNL     1     -11.108  11.351  67.927  1.00  0.00    -0.240 NA 
HETATM   10  O   UNL     1     -12.076  12.044  67.224  1.00  0.00    -0.572 OA 
HETATM   11  C   UNL     1     -11.737  12.094  65.911  1.00  0.00    -0.328 A  
HETATM   12  C   UNL     1     -12.471  12.706  64.898  1.00  0.00    -0.564 A  
HETATM   13  C   UNL     1     -11.931  12.635  63.610  1.00  0.00    -0.615 A  
HETATM   14  C   UNL     1     -10.725  11.972  63.370  1.00  0.00    -0.475 A  
HETATM   15  C   UNL     1     -10.016  11.359  64.415  1.00  0.00    -0.321 A  
HETATM   16  C   UNL     1     -10.532  11.437  65.720  1.00  0.00    -0.314 A  
ENDBRANCH   7   8
ENDBRANCH   2   7
TORSDOF 2
ENDMDL
MODEL       65
REMARK 921   NORMALIZED FREE ENERGY PREDICTED BY IDOCK:   -4.20 KCAL/MOL
REMARK 922        TOTAL FREE ENERGY PREDICTED BY IDOCK:   -5.09 KCAL/MOL
REMARK 923 INTER-LIGAND FREE ENERGY PREDICTED BY IDOCK:   -4.76 KCAL/MOL
REMARK 924 INTRA-LIGAND FREE ENERGY PREDICTED BY IDOCK:   -0.33 KCAL/MOL
REMARK 927      BINDING AFFINITY PREDICTED BY RF-SCORE:    0.00 PKD
ROOT
HETATM    1  N   UNL     1      -9.091  14.994  66.062  1.00  0.00    -0.486 N  
HETATM    2  S   UNL     1     -10.634  15.672  66.061  1.00  0.00    -0.328 S  
HETATM    3  H1  UNL     1      -8.898  14.779  65.084  1.00  0.00     0.000 HD 
HETATM    4  H2  UNL     1      -8.483  14.835  66.865  1.00  0.00     0.000 HD 
HETATM    5  O   UNL     1     -10.905  15.976  67.446  1.00  0.00    -0.319 OA 
HETATM    6  O   UNL     1     -10.553  16.699  65.048  1.00  0.00    -0.683 OA 
ENDROOT
BRANCH   2   7
HETATM    7  C   UNL     1     -11.638  14.298  65.488  1.00  0.00    -0.338 C  
BRANCH   7   8
HETATM    8  C   UNL     1     -11.039  12.977  65.800  1.00  0.00    -0.278 A  
HETATM    9  N   UNL     1     -11.055  12.538  67.070  1.00  0.00    -0.267 NA 
HETATM   10  O   UNL     1     -10.408  11.316  67.059  1.00  0.00    -0.211 OA 
HETATM   11  C   UNL     1      -9.985  11.036  65.800  1.00  0.00    -0.244 A  
HETATM   12  C   UNL     1      -9.293   9.895  65.403  1.00  0.00    -0.297 A  
HETATM   13  C   UNL     1      -8.954   9.814  64.048  1.00  0.00    -0.275 A  
HETATM   14  C   UNL     1      -9.290  10.838  63.159  1.00  0.00    -0.336 A  
HETATM   15  C   UNL     1      -9.981  11.978  63.597  1.00  0.00    -0.387 A  
HETATM   16  C   UNL     1     -10.349  12.069  64.951  1.00  0.00    -0.316 A  
ENDBRANCH   7   8
ENDBRANCH   2   7
TORSDOF 2
ENDMDL
MODEL       66
REMARK 921   NORMALIZED FREE ENERGY PREDICTED BY IDOCK:   -4.20 KCAL/MOL
REMARK 922        TOTAL FREE ENERGY PREDICTED BY IDOCK:   -5.08 KCAL/MOL
REMARK 923 INTER-LIGAND FREE ENERGY PREDICTED BY IDOCK:   -4.86 KCAL/MOL
REMARK 924 INTRA-LIGAND FREE ENERGY PREDICTED BY IDOCK:   -0.22 KCAL/MOL
REMARK 927      BINDING AFFINITY PREDICTED BY RF-SCORE:    0.00 PKD
ROOT
HETATM    1  N   UNL     1     -10.271  12.782  68.726  1.00  0.00    -0.410 N  
HETATM    2  S   UNL     1     -11.484  12.890  67.561  1.00  0.00    -0.357 S  
HETATM    3  H1  UNL     1      -9.845  13.708  68.747  1.00  0.00     0.000 HD 
HETATM    4  H2  UNL     1     -10.020  11.968  69.287  1.00  0.00     0.000 HD 
HETATM    5  O   UNL     1     -12.088  11.579  67.531  1.00  0.00    -0.614 OA 
HETATM    6  O   UNL     1     -12.223  14.070  67.948  1.00  0.00    -0.319 OA 
ENDROOT
BRANCH   2   7
HETATM    7  C   UNL     1     -10.535  13.202  66.069  1.00  0.00    -0.284 C  
BRANCH   7   8
HETATM    8  C   UNL     1     -10.100  14.616  65.949  1.00  0.00    -0.320 A  
HETATM    9  N   UNL     1     -10.828  15.460  65.199  1.00  0.00    -0.406 NA 
HETATM   10  O   UNL     1     -10.173  16.677  65.249  1.00  0.00    -0.600 OA 
HETATM   11  C   UNL     1      -9.049  16.558  65.999  1.00  0.00    -0.255 A  
HETATM   12  C   UNL     1      -8.134  17.572  66.272  1.00  0.00    -0.289 A  
HETATM   13  C   UNL     1      -7.042  17.224  67.073  1.00  0.00    -0.221 A  
HETATM   14  C   UNL     1      -6.887  15.922  67.554  1.00  0.00    -0.213 A  
HETATM   15  C   UNL     1      -7.826  14.923  67.253  1.00  0.00    -0.235 A  
HETATM   16  C   UNL     1      -8.942  15.257  66.467  1.00  0.00    -0.340 A  
ENDBRANCH   7   8
ENDBRANCH   2   7
TORSDOF 2
ENDMDL
MODEL       67
REMARK 921   NORMALIZED FREE ENERGY PREDICTED BY IDOCK:   -4.18 KCAL/MOL
REMARK 922        TOTAL FREE ENERGY PREDICTED BY IDOCK:   -5.07 KCAL/MOL
REMARK 923 INTER-LIGAND FREE ENERGY PREDICTED BY IDOCK:   -4.85 KCAL/MOL
REMARK 924 INTRA-LIGAND FREE ENERGY PREDICTED BY IDOCK:   -0.22 KCAL/MOL
REMARK 927      BINDING AFFINITY PREDICTED BY RF-SCORE:    0.00 PKD
ROOT
HETATM    1  N   UNL     1     -12.038  15.686  69.041  1.00  0.00    -0.583 N  
HETATM    2  S   UNL     1     -11.336  14.258  68.487  1.00  0.00    -0.301 S  
HETATM    3  H1  UNL     1     -13.025  15.463  69.164  1.00  0.00     0.000 HD 
HETATM    4  H2  UNL     1     -11.576  16.578  69.215  1.00  0.00     0.000 HD 
HETATM    5  O   UNL     1      -9.938  14.574  68.313  1.00  0.00    -0.217 OA 
HETATM    6  O   UNL     1     -11.789  13.266  69.435  1.00  0.00    -0.300 OA 
ENDROOT
BRANCH   2   7
HETATM    7  C   UNL     1     -12.154  14.036  66.904  1.00  0.00    -0.430 C  
BRANCH   7   8
HETATM    8  C   UNL     1     -11.377  13.185  65.969  1.00  0.00    -0.308 A  
HETATM    9  N   UNL     1     -11.071  13.664  64.752  1.00  0.00    -0.352 NA 
HETATM   10  O   UNL     1     -10.384  12.653  64.105  1.00  0.00    -0.373 OA 
HETATM   11  C   UNL     1     -10.302  11.568  64.916  1.00  0.00    -0.289 A  
HETATM   12  C   UNL     1      -9.685  10.359  64.606  1.00  0.00    -0.392 A  
HETATM   13  C   UNL     1      -9.720   9.372  65.597  1.00  0.00    -0.336 A  
HETATM   14  C   UNL     1     -10.353   9.602  66.820  1.00  0.00    -0.292 A  
HETATM   15  C   UNL     1     -10.971  10.832  67.095  1.00  0.00    -0.324 A  
HETATM   16  C   UNL     1     -10.930  11.843  66.120  1.00  0.00    -0.352 A  
ENDBRANCH   7   8
ENDBRANCH   2   7
TORSDOF 2
ENDMDL
MODEL       68
REMARK 921   NORMALIZED FREE ENERGY PREDICTED BY IDOCK:   -4.17 KCAL/MOL
REMARK 922        TOTAL FREE ENERGY PREDICTED BY IDOCK:   -5.06 KCAL/MOL
REMARK 923 INTER-LIGAND FREE ENERGY PREDICTED BY IDOCK:   -4.83 KCAL/MOL
REMARK 924 INTRA-LIGAND FREE ENERGY PREDICTED BY IDOCK:   -0.22 KCAL/MOL
REMARK 927      BINDING AFFINITY PREDICTED BY RF-SCORE:    0.00 PKD
ROOT
HETATM    1  N   UNL     1      -8.556  16.404  66.408  1.00  0.00    -0.295 N  
HETATM    2  S   UNL     1     -10.212  16.656  66.221  1.00  0.00    -0.335 S  
HETATM    3  H1  UNL     1      -8.149  16.655  65.507  1.00  0.00     0.000 HD 
HETATM    4  H2  UNL     1      -8.068  16.073  67.240  1.00  0.00     0.000 HD 
HETATM    5  O   UNL     1     -10.787  16.302  67.497  1.00  0.00    -0.321 OA 
HETATM    6  O   UNL     1     -10.293  17.996  65.685  1.00  0.00    -0.611 OA 
ENDROOT
BRANCH   2   7
HETATM    7  C   UNL     1     -10.628  15.447  64.961  1.00  0.00    -0.420 C  
BRANCH   7   8
HETATM    8  C   UNL     1     -11.144  14.177  65.531  1.00  0.00    -0.310 A  
HETATM    9  N   UNL     1     -12.450  13.890  65.407  1.00  0.00    -0.476 NA 
HETATM   10  O   UNL     1     -12.638  12.681  66.051  1.00  0.00    -0.468 OA 
HETATM   11  C   UNL     1     -11.461  12.259  66.579  1.00  0.00    -0.381 A  
HETATM   12  C   UNL     1     -11.261  11.085  67.300  1.00  0.00    -0.330 A  
HETATM   13  C   UNL     1      -9.959  10.848  67.752  1.00  0.00    -0.198 A  
HETATM   14  C   UNL     1      -8.930  11.757  67.494  1.00  0.00    -0.168 A  
HETATM   15  C   UNL     1      -9.171  12.934  66.769  1.00  0.00    -0.230 A  
HETATM   16  C   UNL     1     -10.468  13.181  66.289  1.00  0.00    -0.291 A  
ENDBRANCH   7   8
ENDBRANCH   2   7
TORSDOF 2
ENDMDL
MODEL       69
REMARK 921   NORMALIZED FREE ENERGY PREDICTED BY IDOCK:   -4.17 KCAL/MOL
REMARK 922        TOTAL FREE ENERGY PREDICTED BY IDOCK:   -5.06 KCAL/MOL
REMARK 923 INTER-LIGAND FREE ENERGY PREDICTED BY IDOCK:   -4.95 KCAL/MOL
REMARK 924 INTRA-LIGAND FREE ENERGY PREDICTED BY IDOCK:   -0.11 KCAL/MOL
REMARK 927      BINDING AFFINITY PREDICTED BY RF-SCORE:    0.00 PKD
ROOT
HETATM    1  N   UNL     1     -10.116  13.657  65.563  1.00  0.00    -0.399 N  
HETATM    2  S   UNL     1     -11.362  13.340  66.653  1.00  0.00    -0.335 S  
HETATM    3  H1  UNL     1      -9.647  12.761  65.433  1.00  0.00     0.000 HD 
HETATM    4  H2  UNL     1      -9.884  14.550  65.128  1.00  0.00     0.000 HD 
HETATM    5  O   UNL     1     -12.027  14.608  66.836  1.00  0.00    -0.373 OA 
HETATM    6  O   UNL     1     -12.031  12.194  66.080  1.00  0.00    -0.578 OA 
ENDROOT
BRANCH   2   7
HETATM    7  C   UNL     1     -10.450  12.865  68.125  1.00  0.00    -0.237 C  
BRANCH   7   8
HETATM    8  C   UNL     1     -11.335  12.431  69.235  1.00  0.00    -0.254 A  
HETATM    9  N   UNL     1     -12.176  13.323  69.784  1.00  0.00    -0.264 NA 
HETATM   10  O   UNL     1     -12.836  12.651  70.796  1.00  0.00    -0.162 OA 
HETATM   11  C   UNL     1     -12.377  11.376  70.871  1.00  0.00    -0.381 A  
HETATM   12  C   UNL     1     -12.805  10.402  71.770  1.00  0.00    -0.561 A  
HETATM   13  C   UNL     1     -12.192   9.149  71.667  1.00  0.00    -0.433 A  
HETATM   14  C   UNL     1     -11.198   8.910  70.714  1.00  0.00    -0.321 A  
HETATM   15  C   UNL     1     -10.787   9.918  69.829  1.00  0.00    -0.300 A  
HETATM   16  C   UNL     1     -11.405  11.178  69.903  1.00  0.00    -0.348 A  
ENDBRANCH   7   8
ENDBRANCH   2   7
TORSDOF 2
ENDMDL
MODEL       70
REMARK 921   NORMALIZED FREE ENERGY PREDICTED BY IDOCK:   -4.17 KCAL/MOL
REMARK 922        TOTAL FREE ENERGY PREDICTED BY IDOCK:   -5.05 KCAL/MOL
REMARK 923 INTER-LIGAND FREE ENERGY PREDICTED BY IDOCK:   -4.79 KCAL/MOL
REMARK 924 INTRA-LIGAND FREE ENERGY PREDICTED BY IDOCK:   -0.27 KCAL/MOL
REMARK 927      BINDING AFFINITY PREDICTED BY RF-SCORE:    0.00 PKD
ROOT
HETATM    1  N   UNL     1      -9.685  12.011  63.798  1.00  0.00    -0.555 N  
HETATM    2  S   UNL     1     -10.100  11.792  65.417  1.00  0.00    -0.261 S  
HETATM    3  H1  UNL     1      -9.513  13.011  63.704  1.00  0.00     0.000 HD 
HETATM    4  H2  UNL     1      -9.620  11.298  63.071  1.00  0.00     0.000 HD 
HETATM    5  O   UNL     1     -10.343  10.375  65.549  1.00  0.00    -0.264 OA 
HETATM    6  O   UNL     1      -9.038  12.462  66.133  1.00  0.00    -0.163 OA 
ENDROOT
BRANCH   2   7
HETATM    7  C   UNL     1     -11.628  12.727  65.535  1.00  0.00    -0.362 C  
BRANCH   7   8
HETATM    8  C   UNL     1     -11.816  13.357  66.865  1.00  0.00    -0.403 A  
HETATM    9  N   UNL     1     -11.795  14.697  66.961  1.00  0.00    -0.374 NA 
HETATM   10  O   UNL     1     -11.961  14.985  68.303  1.00  0.00    -0.293 OA 
HETATM   11  C   UNL     1     -12.054  13.831  69.009  1.00  0.00    -0.322 A  
HETATM   12  C   UNL     1     -12.224  13.724  70.387  1.00  0.00    -0.433 A  
HETATM   13  C   UNL     1     -12.295  12.427  70.906  1.00  0.00    -0.358 A  
HETATM   14  C   UNL     1     -12.188  11.311  70.072  1.00  0.00    -0.389 A  
HETATM   15  C   UNL     1     -12.010  11.457  68.688  1.00  0.00    -0.317 A  
HETATM   16  C   UNL     1     -11.956  12.752  68.144  1.00  0.00    -0.295 A  
ENDBRANCH   7   8
ENDBRANCH   2   7
TORSDOF 2
ENDMDL
MODEL       71
REMARK 921   NORMALIZED FREE ENERGY PREDICTED BY IDOCK:   -4.17 KCAL/MOL
REMARK 922        TOTAL FREE ENERGY PREDICTED BY IDOCK:   -5.05 KCAL/MOL
REMARK 923 INTER-LIGAND FREE ENERGY PREDICTED BY IDOCK:   -5.10 KCAL/MOL
REMARK 924 INTRA-LIGAND FREE ENERGY PREDICTED BY IDOCK:    0.05 KCAL/MOL
REMARK 927      BINDING AFFINITY PREDICTED BY RF-SCORE:    0.00 PKD
ROOT
HETATM    1  N   UNL     1     -12.388   6.151  72.501  1.00  0.00    -0.542 N  
HETATM    2  S   UNL     1     -11.749   7.299  71.445  1.00  0.00    -0.304 S  
HETATM    3  H1  UNL     1     -13.320   5.953  72.139  1.00  0.00     0.000 HD 
HETATM    4  H2  UNL     1     -11.940   5.745  73.321  1.00  0.00     0.000 HD 
HETATM    5  O   UNL     1     -10.429   7.580  71.957  1.00  0.00    -0.201 OA 
HETATM    6  O   UNL     1     -11.961   6.715  70.140  1.00  0.00    -0.367 OA 
ENDROOT
BRANCH   2   7
HETATM    7  C   UNL     1     -12.855   8.690  71.701  1.00  0.00    -0.345 C  
BRANCH   7   8
HETATM    8  C   UNL     1     -12.413   9.915  70.990  1.00  0.00    -0.346 A  
HETATM    9  N   UNL     1     -11.533   9.802  69.981  1.00  0.00    -0.216 NA 
HETATM   10  O   UNL     1     -11.288  11.089  69.541  1.00  0.00    -0.239 OA 
HETATM   11  C   UNL     1     -11.994  11.969  70.295  1.00  0.00    -0.314 A  
HETATM   12  C   UNL     1     -11.999  13.354  70.149  1.00  0.00    -0.396 A  
HETATM   13  C   UNL     1     -12.804  14.070  71.041  1.00  0.00    -0.410 A  
HETATM   14  C   UNL     1     -13.547  13.415  72.025  1.00  0.00    -0.577 A  
HETATM   15  C   UNL     1     -13.513  12.018  72.147  1.00  0.00    -0.338 A  
HETATM   16  C   UNL     1     -12.725  11.278  71.248  1.00  0.00    -0.510 A  
ENDBRANCH   7   8
ENDBRANCH   2   7
TORSDOF 2
ENDMDL
MODEL       72
REMARK 921   NORMALIZED FREE ENERGY PREDICTED BY IDOCK:   -4.16 KCAL/MOL
REMARK 922        TOTAL FREE ENERGY PREDICTED BY IDOCK:   -5.04 KCAL/MOL
REMARK 923 INTER-LIGAND FREE ENERGY PREDICTED BY IDOCK:   -4.58 KCAL/MOL
REMARK 924 INTRA-LIGAND FREE ENERGY PREDICTED BY IDOCK:   -0.46 KCAL/MOL
REMARK 927      BINDING AFFINITY PREDICTED BY RF-SCORE:    0.00 PKD
ROOT
HETATM    1  N   UNL     1     -10.969   7.329  73.574  1.00  0.00    -0.555 N  
HETATM    2  S   UNL     1     -11.002   6.336  72.213  1.00  0.00    -0.274 S  
HETATM    3  H1  UNL     1     -11.787   7.056  74.118  1.00  0.00     0.000 HD 
HETATM    4  H2  UNL     1     -10.280   8.045  73.804  1.00  0.00     0.000 HD 
HETATM    5  O   UNL     1      -9.843   6.722  71.444  1.00  0.00    -0.179 OA 
HETATM    6  O   UNL     1     -11.154   5.009  72.764  1.00  0.00    -0.247 OA 
ENDROOT
BRANCH   2   7
HETATM    7  C   UNL     1     -12.520   6.863  71.411  1.00  0.00    -0.367 C  
BRANCH   7   8
HETATM    8  C   UNL     1     -12.788   8.312  71.583  1.00  0.00    -0.329 A  
HETATM    9  N   UNL     1     -13.691   8.704  72.497  1.00  0.00    -0.344 NA 
HETATM   10  O   UNL     1     -13.750  10.082  72.409  1.00  0.00    -0.297 OA 
HETATM   11  C   UNL     1     -12.911  10.513  71.434  1.00  0.00    -0.447 A  
HETATM   12  C   UNL     1     -12.705  11.837  71.056  1.00  0.00    -0.372 A  
HETATM   13  C   UNL     1     -11.789  12.052  70.021  1.00  0.00    -0.392 A  
HETATM   14  C   UNL     1     -11.134  10.982  69.405  1.00  0.00    -0.320 A  
HETATM   15  C   UNL     1     -11.372   9.659  69.808  1.00  0.00    -0.159 A  
HETATM   16  C   UNL     1     -12.274   9.424  70.860  1.00  0.00    -0.297 A  
ENDBRANCH   7   8
ENDBRANCH   2   7
TORSDOF 2
ENDMDL
MODEL       73
REMARK 921   NORMALIZED FREE ENERGY PREDICTED BY IDOCK:   -4.13 KCAL/MOL
REMARK 922        TOTAL FREE ENERGY PREDICTED BY IDOCK:   -5.01 KCAL/MOL
REMARK 923 INTER-LIGAND FREE ENERGY PREDICTED BY IDOCK:   -4.76 KCAL/MOL
REMARK 924 INTRA-LIGAND FREE ENERGY PREDICTED BY IDOCK:   -0.25 KCAL/MOL
REMARK 927      BINDING AFFINITY PREDICTED BY RF-SCORE:    0.00 PKD
ROOT
HETATM    1  N   UNL     1      -9.593  10.149  69.998  1.00  0.00    -0.403 N  
HETATM    2  S   UNL     1      -9.908  10.528  68.387  1.00  0.00    -0.168 S  
HETATM    3  H1  UNL     1     -10.284   9.440  70.241  1.00  0.00     0.000 HD 
HETATM    4  H2  UNL     1      -8.868  10.542  70.599  1.00  0.00     0.000 HD 
HETATM    5  O   UNL     1      -8.928  11.532  68.043  1.00  0.00    -0.156 OA 
HETATM    6  O   UNL     1      -9.950   9.239  67.736  1.00  0.00    -0.170 OA 
ENDROOT
BRANCH   2   7
HETATM    7  C   UNL     1     -11.555  11.236  68.491  1.00  0.00    -0.315 C  
BRANCH   7   8
HETATM    8  C   UNL     1     -11.724  12.428  67.623  1.00  0.00    -0.346 A  
HETATM    9  N   UNL     1     -11.924  13.627  68.194  1.00  0.00    -0.369 NA 
HETATM   10  O   UNL     1     -12.077  14.525  67.153  1.00  0.00    -0.397 OA 
HETATM   11  C   UNL     1     -11.996  13.867  65.970  1.00  0.00    -0.412 A  
HETATM   12  C   UNL     1     -12.106  14.439  64.705  1.00  0.00    -0.485 A  
HETATM   13  C   UNL     1     -11.991  13.568  63.616  1.00  0.00    -0.439 A  
HETATM   14  C   UNL     1     -11.789  12.200  63.808  1.00  0.00    -0.592 A  
HETATM   15  C   UNL     1     -11.690  11.656  65.098  1.00  0.00    -0.046 A  
HETATM   16  C   UNL     1     -11.783  12.518  66.205  1.00  0.00    -0.466 A  
ENDBRANCH   7   8
ENDBRANCH   2   7
TORSDOF 2
ENDMDL
MODEL       74
REMARK 921   NORMALIZED FREE ENERGY PREDICTED BY IDOCK:   -4.08 KCAL/MOL
REMARK 922        TOTAL FREE ENERGY PREDICTED BY IDOCK:   -4.95 KCAL/MOL
REMARK 923 INTER-LIGAND FREE ENERGY PREDICTED BY IDOCK:   -4.49 KCAL/MOL
REMARK 924 INTRA-LIGAND FREE ENERGY PREDICTED BY IDOCK:   -0.46 KCAL/MOL
REMARK 927      BINDING AFFINITY PREDICTED BY RF-SCORE:    0.00 PKD
ROOT
HETATM    1  N   UNL     1     -11.065   7.562  67.494  1.00  0.00    -0.532 N  
HETATM    2  S   UNL     1     -10.339   6.636  68.701  1.00  0.00    -0.205 S  
HETATM    3  H1  UNL     1     -10.289   7.941  66.952  1.00  0.00     0.000 HD 
HETATM    4  H2  UNL     1     -12.062   7.710  67.340  1.00  0.00     0.000 HD 
HETATM    5  O   UNL     1     -11.438   6.099  69.468  1.00  0.00    -0.429 OA 
HETATM    6  O   UNL     1      -9.421   5.789  67.973  1.00  0.00    -0.108 OA 
ENDROOT
BRANCH   2   7
HETATM    7  C   UNL     1      -9.444   7.882  69.632  1.00  0.00    -0.160 C  
BRANCH   7   8
HETATM    8  C   UNL     1     -10.153   9.185  69.681  1.00  0.00    -0.198 A  
HETATM    9  N   UNL     1      -9.771  10.167  68.847  1.00  0.00    -0.177 NA 
HETATM   10  O   UNL     1     -10.578  11.251  69.139  1.00  0.00    -0.218 OA 
HETATM   11  C   UNL     1     -11.418  10.932  70.156  1.00  0.00    -0.319 A  
HETATM   12  C   UNL     1     -12.373  11.771  70.723  1.00  0.00    -0.433 A  
HETATM   13  C   UNL     1     -13.134  11.232  71.766  1.00  0.00    -0.527 A  
HETATM   14  C   UNL     1     -12.924   9.923  72.207  1.00  0.00    -0.387 A  
HETATM   15  C   UNL     1     -11.948   9.107  71.616  1.00  0.00    -0.437 A  
HETATM   16  C   UNL     1     -11.186   9.625  70.553  1.00  0.00    -0.359 A  
ENDBRANCH   7   8
ENDBRANCH   2   7
TORSDOF 2
ENDMDL
MODEL       75
REMARK 921   NORMALIZED FREE ENERGY PREDICTED BY IDOCK:   -4.08 KCAL/MOL
REMARK 922        TOTAL FREE ENERGY PREDICTED BY IDOCK:   -4.95 KCAL/MOL
REMARK 923 INTER-LIGAND FREE ENERGY PREDICTED BY IDOCK:   -4.72 KCAL/MOL
REMARK 924 INTRA-LIGAND FREE ENERGY PREDICTED BY IDOCK:   -0.23 KCAL/MOL
REMARK 927      BINDING AFFINITY PREDICTED BY RF-SCORE:    0.00 PKD
ROOT
HETATM    1  N   UNL     1      -8.713  15.586  66.284  1.00  0.00    -0.400 N  
HETATM    2  S   UNL     1     -10.321  15.383  65.819  1.00  0.00    -0.391 S  
HETATM    3  H1  UNL     1      -8.184  15.560  65.413  1.00  0.00     0.000 HD 
HETATM    4  H2  UNL     1      -8.350  15.707  67.229  1.00  0.00     0.000 HD 
HETATM    5  O   UNL     1     -11.070  15.419  67.053  1.00  0.00    -0.322 OA 
HETATM    6  O   UNL     1     -10.501  16.369  64.779  1.00  0.00    -0.620 OA 
ENDROOT
BRANCH   2   7
HETATM    7  C   UNL     1     -10.296  13.728  65.122  1.00  0.00    -0.372 C  
BRANCH   7   8
HETATM    8  C   UNL     1     -10.665  12.683  66.108  1.00  0.00    -0.267 A  
HETATM    9  N   UNL     1     -11.955  12.331  66.233  1.00  0.00    -0.626 NA 
HETATM   10  O   UNL     1     -11.995  11.376  67.232  1.00  0.00    -0.580 OA 
HETATM   11  C   UNL     1     -10.746  11.176  67.721  1.00  0.00    -0.222 A  
HETATM   12  C   UNL     1     -10.395  10.290  68.737  1.00  0.00    -0.211 A  
HETATM   13  C   UNL     1      -9.040  10.246  69.083  1.00  0.00    -0.199 A  
HETATM   14  C   UNL     1      -8.106  11.062  68.440  1.00  0.00    -0.134 A  
HETATM   15  C   UNL     1      -8.497  11.948  67.424  1.00  0.00    -0.166 A  
HETATM   16  C   UNL     1      -9.851  11.993  67.048  1.00  0.00    -0.205 A  
ENDBRANCH   7   8
ENDBRANCH   2   7
TORSDOF 2
ENDMDL
MODEL       76
REMARK 921   NORMALIZED FREE ENERGY PREDICTED BY IDOCK:   -4.08 KCAL/MOL
REMARK 922        TOTAL FREE ENERGY PREDICTED BY IDOCK:   -4.95 KCAL/MOL
REMARK 923 INTER-LIGAND FREE ENERGY PREDICTED BY IDOCK:   -4.75 KCAL/MOL
REMARK 924 INTRA-LIGAND FREE ENERGY PREDICTED BY IDOCK:   -0.20 KCAL/MOL
REMARK 927      BINDING AFFINITY PREDICTED BY RF-SCORE:    0.00 PKD
ROOT
HETATM    1  N   UNL     1      -8.848  19.567  66.500  1.00  0.00    -0.341 N  
HETATM    2  S   UNL     1     -10.091  18.490  66.864  1.00  0.00    -0.394 S  
HETATM    3  H1  UNL     1      -8.231  19.053  65.871  1.00  0.00     0.000 HD 
HETATM    4  H2  UNL     1      -8.737  20.524  66.834  1.00  0.00     0.000 HD 
HETATM    5  O   UNL     1     -10.964  19.218  67.754  1.00  0.00    -0.383 OA 
HETATM    6  O   UNL     1     -10.528  18.023  65.568  1.00  0.00    -0.636 OA 
ENDROOT
BRANCH   2   7
HETATM    7  C   UNL     1      -9.209  17.192  67.737  1.00  0.00    -0.241 C  
BRANCH   7   8
HETATM    8  C   UNL     1     -10.048  15.992  67.984  1.00  0.00    -0.240 A  
HETATM    9  N   UNL     1     -10.117  15.040  67.039  1.00  0.00    -0.241 NA 
HETATM   10  O   UNL     1     -10.982  14.079  67.530  1.00  0.00    -0.269 OA 
HETATM   11  C   UNL     1     -11.448  14.463  68.745  1.00  0.00    -0.289 A  
HETATM   12  C   UNL     1     -12.341  13.752  69.542  1.00  0.00    -0.258 A  
HETATM   13  C   UNL     1     -12.687  14.340  70.764  1.00  0.00    -0.419 A  
HETATM   14  C   UNL     1     -12.162  15.578  71.141  1.00  0.00    -0.451 A  
HETATM   15  C   UNL     1     -11.269  16.270  70.308  1.00  0.00    -0.343 A  
HETATM   16  C   UNL     1     -10.894  15.687  69.085  1.00  0.00    -0.246 A  
ENDBRANCH   7   8
ENDBRANCH   2   7
TORSDOF 2
ENDMDL
MODEL       77
REMARK 921   NORMALIZED FREE ENERGY PREDICTED BY IDOCK:   -4.07 KCAL/MOL
REMARK 922        TOTAL FREE ENERGY PREDICTED BY IDOCK:   -4.94 KCAL/MOL
REMARK 923 INTER-LIGAND FREE ENERGY PREDICTED BY IDOCK:   -4.72 KCAL/MOL
REMARK 924 INTRA-LIGAND FREE ENERGY PREDICTED BY IDOCK:   -0.22 KCAL/MOL
REMARK 927      BINDING AFFINITY PREDICTED BY RF-SCORE:    0.00 PKD
ROOT
HETATM    1  N   UNL     1     -10.682  10.554  70.066  1.00  0.00    -0.420 N  
HETATM    2  S   UNL     1     -10.528  11.052  68.463  1.00  0.00    -0.201 S  
HETATM    3  H1  UNL     1     -11.583  10.076  70.106  1.00  0.00     0.000 HD 
HETATM    4  H2  UNL     1     -10.020  10.698  70.828  1.00  0.00     0.000 HD 
HETATM    5  O   UNL     1      -9.253  11.727  68.406  1.00  0.00    -0.183 OA 
HETATM    6  O   UNL     1     -10.798   9.850  67.707  1.00  0.00    -0.268 OA 
ENDROOT
BRANCH   2   7
HETATM    7  C   UNL     1     -11.887  12.214  68.307  1.00  0.00    -0.301 C  
BRANCH   7   8
HETATM    8  C   UNL     1     -11.832  12.998  67.048  1.00  0.00    -0.377 A  
HETATM    9  N   UNL     1     -12.256  12.430  65.907  1.00  0.00    -0.632 NA 
HETATM   10  O   UNL     1     -12.057  13.372  64.915  1.00  0.00    -0.356 OA 
HETATM   11  C   UNL     1     -11.494  14.485  65.450  1.00  0.00    -0.348 A  
HETATM   12  C   UNL     1     -11.146  15.642  64.757  1.00  0.00    -0.426 A  
HETATM   13  C   UNL     1     -10.576  16.671  65.513  1.00  0.00    -0.273 A  
HETATM   14  C   UNL     1     -10.365  16.524  66.886  1.00  0.00    -0.300 A  
HETATM   15  C   UNL     1     -10.722  15.341  67.550  1.00  0.00    -0.285 A  
HETATM   16  C   UNL     1     -11.315  14.302  66.812  1.00  0.00    -0.357 A  
ENDBRANCH   7   8
ENDBRANCH   2   7
TORSDOF 2
ENDMDL
MODEL       78
REMARK 921   NORMALIZED FREE ENERGY PREDICTED BY IDOCK:   -4.06 KCAL/MOL
REMARK 922        TOTAL FREE ENERGY PREDICTED BY IDOCK:   -4.93 KCAL/MOL
REMARK 923 INTER-LIGAND FREE ENERGY PREDICTED BY IDOCK:   -4.72 KCAL/MOL
REMARK 924 INTRA-LIGAND FREE ENERGY PREDICTED BY IDOCK:   -0.21 KCAL/MOL
REMARK 927      BINDING AFFINITY PREDICTED BY RF-SCORE:    0.00 PKD
ROOT
HETATM    1  N   UNL     1      -9.957  14.859  69.986  1.00  0.00    -0.465 N  
HETATM    2  S   UNL     1     -11.532  15.352  70.326  1.00  0.00    -0.350 S  
HETATM    3  H1  UNL     1     -10.008  14.439  69.058  1.00  0.00     0.000 HD 
HETATM    4  H2  UNL     1      -9.133  14.959  70.579  1.00  0.00     0.000 HD 
HETATM    5  O   UNL     1     -11.459  15.948  71.639  1.00  0.00    -0.407 OA 
HETATM    6  O   UNL     1     -11.910  16.112  69.156  1.00  0.00    -0.309 OA 
ENDROOT
BRANCH   2   7
HETATM    7  C   UNL     1     -12.407  13.786  70.370  1.00  0.00    -0.353 C  
BRANCH   7   8
HETATM    8  C   UNL     1     -11.989  12.862  69.287  1.00  0.00    -0.260 A  
HETATM    9  N   UNL     1     -12.096  13.264  68.009  1.00  0.00    -0.295 NA 
HETATM   10  O   UNL     1     -11.669  12.199  67.237  1.00  0.00    -0.446 OA 
HETATM   11  C   UNL     1     -11.333  11.160  68.041  1.00  0.00    -0.312 A  
HETATM   12  C   UNL     1     -10.862   9.918  67.622  1.00  0.00    -0.318 A  
HETATM   13  C   UNL     1     -10.577   8.989  68.628  1.00  0.00    -0.194 A  
HETATM   14  C   UNL     1     -10.771   9.305  69.975  1.00  0.00    -0.259 A  
HETATM   15  C   UNL     1     -11.254  10.565  70.361  1.00  0.00    -0.378 A  
HETATM   16  C   UNL     1     -11.527  11.519  69.366  1.00  0.00    -0.376 A  
ENDBRANCH   7   8
ENDBRANCH   2   7
TORSDOF 2
ENDMDL
MODEL       79
REMARK 921   NORMALIZED FREE ENERGY PREDICTED BY IDOCK:   -4.06 KCAL/MOL
REMARK 922        TOTAL FREE ENERGY PREDICTED BY IDOCK:   -4.93 KCAL/MOL
REMARK 923 INTER-LIGAND FREE ENERGY PREDICTED BY IDOCK:   -4.87 KCAL/MOL
REMARK 924 INTRA-LIGAND FREE ENERGY PREDICTED BY IDOCK:   -0.06 KCAL/MOL
REMARK 927      BINDING AFFINITY PREDICTED BY RF-SCORE:    0.00 PKD
ROOT
HETATM    1  N   UNL     1     -12.376  15.547  69.222  1.00  0.00    -0.606 N  
HETATM    2  S   UNL     1     -11.628  14.052  69.012  1.00  0.00    -0.328 S  
HETATM    3  H1  UNL     1     -13.375  15.342  69.224  1.00  0.00     0.000 HD 
HETATM    4  H2  UNL     1     -11.928  16.457  69.325  1.00  0.00     0.000 HD 
HETATM    5  O   UNL     1     -10.214  14.342  69.010  1.00  0.00    -0.230 OA 
HETATM    6  O   UNL     1     -12.242  13.220  70.022  1.00  0.00    -0.317 OA 
ENDROOT
BRANCH   2   7
HETATM    7  C   UNL     1     -12.198  13.582  67.376  1.00  0.00    -0.235 C  
BRANCH   7   8
HETATM    8  C   UNL     1     -11.543  12.350  66.870  1.00  0.00    -0.370 A  
HETATM    9  N   UNL     1     -11.411  11.297  67.693  1.00  0.00    -0.482 NA 
HETATM   10  O   UNL     1     -10.746  10.326  66.967  1.00  0.00    -0.253 OA 
HETATM   11  C   UNL     1     -10.458  10.801  65.729  1.00  0.00    -0.188 A  
HETATM   12  C   UNL     1      -9.792  10.109  64.721  1.00  0.00    -0.382 A  
HETATM   13  C   UNL     1      -9.602  10.796  63.517  1.00  0.00    -0.359 A  
HETATM   14  C   UNL     1     -10.053  12.109  63.359  1.00  0.00    -0.383 A  
HETATM   15  C   UNL     1     -10.714  12.778  64.400  1.00  0.00    -0.398 A  
HETATM   16  C   UNL     1     -10.933  12.098  65.610  1.00  0.00    -0.337 A  
ENDBRANCH   7   8
ENDBRANCH   2   7
TORSDOF 2
ENDMDL
MODEL       80
REMARK 921   NORMALIZED FREE ENERGY PREDICTED BY IDOCK:   -4.05 KCAL/MOL
REMARK 922        TOTAL FREE ENERGY PREDICTED BY IDOCK:   -4.92 KCAL/MOL
REMARK 923 INTER-LIGAND FREE ENERGY PREDICTED BY IDOCK:   -4.57 KCAL/MOL
REMARK 924 INTRA-LIGAND FREE ENERGY PREDICTED BY IDOCK:   -0.35 KCAL/MOL
REMARK 927      BINDING AFFINITY PREDICTED BY RF-SCORE:    0.00 PKD
ROOT
HETATM    1  N   UNL     1      -9.543  11.289  68.968  1.00  0.00    -0.394 N  
HETATM    2  S   UNL     1      -9.982  11.808  67.426  1.00  0.00    -0.185 S  
HETATM    3  H1  UNL     1     -10.267  10.623  69.237  1.00  0.00     0.000 HD 
HETATM    4  H2  UNL     1      -8.730  11.577  69.512  1.00  0.00     0.000 HD 
HETATM    5  O   UNL     1      -8.957  12.750  67.046  1.00  0.00    -0.208 OA 
HETATM    6  O   UNL     1     -10.204  10.576  66.703  1.00  0.00    -0.217 OA 
ENDROOT
BRANCH   2   7
HETATM    7  C   UNL     1     -11.541  12.639  67.749  1.00  0.00    -0.348 C  
BRANCH   7   8
HETATM    8  C   UNL     1     -12.028  12.431  69.135  1.00  0.00    -0.240 A  
HETATM    9  N   UNL     1     -12.345  11.189  69.535  1.00  0.00    -0.276 NA 
HETATM   10  O   UNL     1     -12.790  11.309  70.839  1.00  0.00    -0.319 OA 
HETATM   11  C   UNL     1     -12.765  12.614  71.209  1.00  0.00    -0.257 A  
HETATM   12  C   UNL     1     -13.144  13.122  72.449  1.00  0.00    -0.413 A  
HETATM   13  C   UNL     1     -13.037  14.507  72.613  1.00  0.00    -0.557 A  
HETATM   14  C   UNL     1     -12.583  15.322  71.573  1.00  0.00    -0.442 A  
HETATM   15  C   UNL     1     -12.215  14.776  70.334  1.00  0.00    -0.395 A  
HETATM   16  C   UNL     1     -12.297  13.384  70.156  1.00  0.00    -0.322 A  
ENDBRANCH   7   8
ENDBRANCH   2   7
TORSDOF 2
ENDMDL
MODEL       81
REMARK 921   NORMALIZED FREE ENERGY PREDICTED BY IDOCK:   -4.05 KCAL/MOL
REMARK 922        TOTAL FREE ENERGY PREDICTED BY IDOCK:   -4.92 KCAL/MOL
REMARK 923 INTER-LIGAND FREE ENERGY PREDICTED BY IDOCK:   -4.47 KCAL/MOL
REMARK 924 INTRA-LIGAND FREE ENERGY PREDICTED BY IDOCK:   -0.45 KCAL/MOL
REMARK 927      BINDING AFFINITY PREDICTED BY RF-SCORE:    0.00 PKD
ROOT
HETATM    1  N   UNL     1     -10.873   8.193  66.883  1.00  0.00    -0.373 N  
HETATM    2  S   UNL     1      -9.865   8.885  68.043  1.00  0.00    -0.176 S  
HETATM    3  H1  UNL     1     -10.239   7.795  66.190  1.00  0.00     0.000 HD 
HETATM    4  H2  UNL     1     -11.892   8.177  66.876  1.00  0.00     0.000 HD 
HETATM    5  O   UNL     1     -10.762   9.449  69.024  1.00  0.00    -0.223 OA 
HETATM    6  O   UNL     1      -8.940   7.823  68.367  1.00  0.00    -0.133 OA 
ENDROOT
BRANCH   2   7
HETATM    7  C   UNL     1      -9.044  10.172  67.098  1.00  0.00    -0.135 C  
BRANCH   7   8
HETATM    8  C   UNL     1      -9.923  10.779  66.068  1.00  0.00    -0.242 A  
HETATM    9  N   UNL     1      -9.894  10.291  64.817  1.00  0.00    -0.328 NA 
HETATM   10  O   UNL     1     -10.779  11.062  64.086  1.00  0.00    -0.378 OA 
HETATM   11  C   UNL     1     -11.313  12.021  64.884  1.00  0.00    -0.310 A  
HETATM   12  C   UNL     1     -12.241  12.985  64.498  1.00  0.00    -0.476 A  
HETATM   13  C   UNL     1     -12.658  13.878  65.489  1.00  0.00    -0.560 A  
HETATM   14  C   UNL     1     -12.152  13.799  66.789  1.00  0.00    -0.460 A  
HETATM   15  C   UNL     1     -11.212  12.818  67.141  1.00  0.00    -0.336 A  
HETATM   16  C   UNL     1     -10.795  11.898  66.163  1.00  0.00    -0.334 A  
ENDBRANCH   7   8
ENDBRANCH   2   7
TORSDOF 2
ENDMDL
MODEL       82
REMARK 921   NORMALIZED FREE ENERGY PREDICTED BY IDOCK:   -4.05 KCAL/MOL
REMARK 922        TOTAL FREE ENERGY PREDICTED BY IDOCK:   -4.92 KCAL/MOL
REMARK 923 INTER-LIGAND FREE ENERGY PREDICTED BY IDOCK:   -4.78 KCAL/MOL
REMARK 924 INTRA-LIGAND FREE ENERGY PREDICTED BY IDOCK:   -0.13 KCAL/MOL
REMARK 927      BINDING AFFINITY PREDICTED BY RF-SCORE:    0.00 PKD
ROOT
HETATM    1  N   UNL     1     -12.404  14.779  63.625  1.00  0.00    -1.067 N  
HETATM    2  S   UNL     1     -12.131  13.210  64.177  1.00  0.00    -0.435 S  
HETATM    3  H1  UNL     1     -11.709  14.924  62.893  1.00  0.00     0.000 HD 
HETATM    4  H2  UNL     1     -13.111  15.438  63.951  1.00  0.00     0.000 HD 
HETATM    5  O   UNL     1     -13.116  13.005  65.212  1.00  0.00    -0.689 OA 
HETATM    6  O   UNL     1     -12.110  12.422  62.966  1.00  0.00    -0.324 OA 
ENDROOT
BRANCH   2   7
HETATM    7  C   UNL     1     -10.479  13.346  64.869  1.00  0.00    -0.390 C  
BRANCH   7   8
HETATM    8  C   UNL     1      -9.920  12.036  65.285  1.00  0.00    -0.247 A  
HETATM    9  N   UNL     1      -9.763  11.781  66.594  1.00  0.00    -0.198 NA 
HETATM   10  O   UNL     1      -9.202  10.520  66.673  1.00  0.00    -0.154 OA 
HETATM   11  C   UNL     1      -9.000  10.033  65.423  1.00  0.00    -0.180 A  
HETATM   12  C   UNL     1      -8.450   8.794  65.104  1.00  0.00    -0.192 A  
HETATM   13  C   UNL     1      -8.334   8.497  63.743  1.00  0.00    -0.085 A  
HETATM   14  C   UNL     1      -8.742   9.412  62.769  1.00  0.00    -0.231 A  
HETATM   15  C   UNL     1      -9.285  10.655  63.126  1.00  0.00    -0.308 A  
HETATM   16  C   UNL     1      -9.429  10.964  64.490  1.00  0.00    -0.284 A  
ENDBRANCH   7   8
ENDBRANCH   2   7
TORSDOF 2
ENDMDL
MODEL       83
REMARK 921   NORMALIZED FREE ENERGY PREDICTED BY IDOCK:   -4.03 KCAL/MOL
REMARK 922        TOTAL FREE ENERGY PREDICTED BY IDOCK:   -4.90 KCAL/MOL
REMARK 923 INTER-LIGAND FREE ENERGY PREDICTED BY IDOCK:   -4.54 KCAL/MOL
REMARK 924 INTRA-LIGAND FREE ENERGY PREDICTED BY IDOCK:   -0.36 KCAL/MOL
REMARK 927      BINDING AFFINITY PREDICTED BY RF-SCORE:    0.00 PKD
ROOT
HETATM    1  N   UNL     1      -6.828  18.954  68.142  1.00  0.00    -0.236 N  
HETATM    2  S   UNL     1      -6.975  20.064  66.882  1.00  0.00    -0.229 S  
HETATM    3  H1  UNL     1      -6.809  18.042  67.687  1.00  0.00     0.000 HD 
HETATM    4  H2  UNL     1      -6.771  19.152  69.141  1.00  0.00     0.000 HD 
HETATM    5  O   UNL     1      -7.002  21.355  67.527  1.00  0.00    -0.539 OA 
HETATM    6  O   UNL     1      -5.922  19.681  65.968  1.00  0.00    -0.167 OA 
ENDROOT
BRANCH   2   7
HETATM    7  C   UNL     1      -8.583  19.641  66.205  1.00  0.00    -0.366 C  
BRANCH   7   8
HETATM    8  C   UNL     1      -9.390  18.798  67.122  1.00  0.00    -0.297 A  
HETATM    9  N   UNL     1      -9.675  19.260  68.351  1.00  0.00    -0.376 NA 
HETATM   10  O   UNL     1     -10.399  18.260  68.975  1.00  0.00    -0.320 OA 
HETATM   11  C   UNL     1     -10.524  17.199  68.139  1.00  0.00    -0.366 A  
HETATM   12  C   UNL     1     -11.186  16.007  68.422  1.00  0.00    -0.364 A  
HETATM   13  C   UNL     1     -11.191  15.043  67.408  1.00  0.00    -0.337 A  
HETATM   14  C   UNL     1     -10.551  15.278  66.189  1.00  0.00    -0.318 A  
HETATM   15  C   UNL     1      -9.887  16.489  65.941  1.00  0.00    -0.324 A  
HETATM   16  C   UNL     1      -9.888  17.478  66.940  1.00  0.00    -0.302 A  
ENDBRANCH   7   8
ENDBRANCH   2   7
TORSDOF 2
ENDMDL
MODEL       84
REMARK 921   NORMALIZED FREE ENERGY PREDICTED BY IDOCK:   -4.03 KCAL/MOL
REMARK 922        TOTAL FREE ENERGY PREDICTED BY IDOCK:   -4.89 KCAL/MOL
REMARK 923 INTER-LIGAND FREE ENERGY PREDICTED BY IDOCK:   -4.63 KCAL/MOL
REMARK 924 INTRA-LIGAND FREE ENERGY PREDICTED BY IDOCK:   -0.26 KCAL/MOL
REMARK 927      BINDING AFFINITY PREDICTED BY RF-SCORE:    0.00 PKD
ROOT
HETATM    1  N   UNL     1     -10.025  12.081  69.064  1.00  0.00    -0.415 N  
HETATM    2  S   UNL     1     -11.700  12.111  68.883  1.00  0.00    -0.324 S  
HETATM    3  H1  UNL     1      -9.814  11.140  69.396  1.00  0.00     0.000 HD 
HETATM    4  H2  UNL     1      -9.367  12.838  68.881  1.00  0.00     0.000 HD 
HETATM    5  O   UNL     1     -11.999  13.443  68.412  1.00  0.00    -0.348 OA 
HETATM    6  O   UNL     1     -11.978  10.934  68.091  1.00  0.00    -0.581 OA 
ENDROOT
BRANCH   2   7
HETATM    7  C   UNL     1     -12.257  11.880  70.574  1.00  0.00    -0.336 C  
BRANCH   7   8
HETATM    8  C   UNL     1     -12.412  10.449  70.938  1.00  0.00    -0.381 A  
HETATM    9  N   UNL     1     -13.646   9.924  71.006  1.00  0.00    -0.241 NA 
HETATM   10  O   UNL     1     -13.479   8.606  71.392  1.00  0.00    -0.311 OA 
HETATM   11  C   UNL     1     -12.160   8.351  71.579  1.00  0.00    -0.301 A  
HETATM   12  C   UNL     1     -11.608   7.134  71.973  1.00  0.00    -0.317 A  
HETATM   13  C   UNL     1     -10.216   7.096  72.104  1.00  0.00    -0.207 A  
HETATM   14  C   UNL     1      -9.439   8.231  71.860  1.00  0.00    -0.287 A  
HETATM   15  C   UNL     1     -10.030   9.443  71.472  1.00  0.00    -0.137 A  
HETATM   16  C   UNL     1     -11.426   9.496  71.315  1.00  0.00    -0.447 A  
ENDBRANCH   7   8
ENDBRANCH   2   7
TORSDOF 2
ENDMDL
MODEL       85
REMARK 921   NORMALIZED FREE ENERGY PREDICTED BY IDOCK:   -4.02 KCAL/MOL
REMARK 922        TOTAL FREE ENERGY PREDICTED BY IDOCK:   -4.89 KCAL/MOL
REMARK 923 INTER-LIGAND FREE ENERGY PREDICTED BY IDOCK:   -4.64 KCAL/MOL
REMARK 924 INTRA-LIGAND FREE ENERGY PREDICTED BY IDOCK:   -0.25 KCAL/MOL
REMARK 927      BINDING AFFINITY PREDICTED BY RF-SCORE:    0.00 PKD
ROOT
HETATM    1  N   UNL     1     -13.734  15.441  70.640  1.00  0.00    -0.841 N  
HETATM    2  S   UNL     1     -12.051  15.371  70.581  1.00  0.00    -0.404 S  
HETATM    3  H1  UNL     1     -14.048  14.700  70.013  1.00  0.00     0.000 HD 
HETATM    4  H2  UNL     1     -14.311  16.083  71.183  1.00  0.00     0.000 HD 
HETATM    5  O   UNL     1     -11.606  16.420  71.468  1.00  0.00    -0.437 OA 
HETATM    6  O   UNL     1     -11.759  13.978  70.828  1.00  0.00    -0.252 OA 
ENDROOT
BRANCH   2   7
HETATM    7  C   UNL     1     -11.725  15.789  68.866  1.00  0.00    -0.394 C  
BRANCH   7   8
HETATM    8  C   UNL     1     -10.548  16.679  68.704  1.00  0.00    -0.337 A  
HETATM    9  N   UNL     1     -10.723  17.900  68.171  1.00  0.00    -0.332 NA 
HETATM   10  O   UNL     1      -9.467  18.475  68.117  1.00  0.00    -0.295 OA 
HETATM   11  C   UNL     1      -8.544  17.599  68.588  1.00  0.00    -0.264 A  
HETATM   12  C   UNL     1      -7.173  17.825  68.684  1.00  0.00    -0.260 A  
HETATM   13  C   UNL     1      -6.405  16.777  69.202  1.00  0.00    -0.200 A  
HETATM   14  C   UNL     1      -6.998  15.572  69.586  1.00  0.00    -0.173 A  
HETATM   15  C   UNL     1      -8.383  15.377  69.468  1.00  0.00    -0.204 A  
HETATM   16  C   UNL     1      -9.174  16.425  68.969  1.00  0.00    -0.247 A  
ENDBRANCH   7   8
ENDBRANCH   2   7
TORSDOF 2
ENDMDL
MODEL       86
REMARK 921   NORMALIZED FREE ENERGY PREDICTED BY IDOCK:   -4.02 KCAL/MOL
REMARK 922        TOTAL FREE ENERGY PREDICTED BY IDOCK:   -4.88 KCAL/MOL
REMARK 923 INTER-LIGAND FREE ENERGY PREDICTED BY IDOCK:   -4.63 KCAL/MOL
REMARK 924 INTRA-LIGAND FREE ENERGY PREDICTED BY IDOCK:   -0.26 KCAL/MOL
REMARK 927      BINDING AFFINITY PREDICTED BY RF-SCORE:    0.00 PKD
ROOT
HETATM    1  N   UNL     1     -11.881   9.736  69.734  1.00  0.00    -0.456 N  
HETATM    2  S   UNL     1     -11.964   9.388  71.381  1.00  0.00    -0.396 S  
HETATM    3  H1  UNL     1     -12.852   9.825  69.435  1.00  0.00     0.000 HD 
HETATM    4  H2  UNL     1     -11.043   9.836  69.162  1.00  0.00     0.000 HD 
HETATM    5  O   UNL     1     -10.590   9.263  71.804  1.00  0.00    -0.355 OA 
HETATM    6  O   UNL     1     -12.840  10.413  71.901  1.00  0.00    -0.433 OA 
ENDROOT
BRANCH   2   7
HETATM    7  C   UNL     1     -12.791   7.794  71.378  1.00  0.00    -0.298 C  
BRANCH   7   8
HETATM    8  C   UNL     1     -11.844   6.655  71.287  1.00  0.00    -0.350 A  
HETATM    9  N   UNL     1     -11.468   6.029  72.414  1.00  0.00    -0.302 NA 
HETATM   10  O   UNL     1     -10.574   5.048  72.025  1.00  0.00    -0.214 OA 
HETATM   11  C   UNL     1     -10.395   5.103  70.681  1.00  0.00    -0.235 A  
HETATM   12  C   UNL     1      -9.565   4.274  69.931  1.00  0.00    -0.279 A  
HETATM   13  C   UNL     1      -9.534   4.509  68.553  1.00  0.00    -0.213 A  
HETATM   14  C   UNL     1     -10.293   5.532  67.980  1.00  0.00    -0.237 A  
HETATM   15  C   UNL     1     -11.114   6.353  68.768  1.00  0.00    -0.404 A  
HETATM   16  C   UNL     1     -11.174   6.120  70.153  1.00  0.00    -0.452 A  
ENDBRANCH   7   8
ENDBRANCH   2   7
TORSDOF 2
ENDMDL
MODEL       87
REMARK 921   NORMALIZED FREE ENERGY PREDICTED BY IDOCK:   -4.00 KCAL/MOL
REMARK 922        TOTAL FREE ENERGY PREDICTED BY IDOCK:   -4.87 KCAL/MOL
REMARK 923 INTER-LIGAND FREE ENERGY PREDICTED BY IDOCK:   -4.44 KCAL/MOL
REMARK 924 INTRA-LIGAND FREE ENERGY PREDICTED BY IDOCK:   -0.43 KCAL/MOL
REMARK 927      BINDING AFFINITY PREDICTED BY RF-SCORE:    0.00 PKD
ROOT
HETATM    1  N   UNL     1     -10.011  14.288  69.307  1.00  0.00    -0.427 N  
HETATM    2  S   UNL     1      -8.726  13.949  68.272  1.00  0.00    -0.179 S  
HETATM    3  H1  UNL     1     -10.824  13.858  68.865  1.00  0.00     0.000 HD 
HETATM    4  H2  UNL     1      -9.983  14.807  70.184  1.00  0.00     0.000 HD 
HETATM    5  O   UNL     1      -7.575  14.556  68.899  1.00  0.00    -0.129 OA 
HETATM    6  O   UNL     1      -8.825  12.523  68.061  1.00  0.00    -0.174 OA 
ENDROOT
BRANCH   2   7
HETATM    7  C   UNL     1      -9.204  14.840  66.788  1.00  0.00    -0.260 C  
BRANCH   7   8
HETATM    8  C   UNL     1     -10.526  14.417  66.264  1.00  0.00    -0.290 A  
HETATM    9  N   UNL     1     -11.640  14.929  66.813  1.00  0.00    -0.315 NA 
HETATM   10  O   UNL     1     -12.699  14.335  66.151  1.00  0.00    -0.401 OA 
HETATM   11  C   UNL     1     -12.226  13.456  65.232  1.00  0.00    -0.440 A  
HETATM   12  C   UNL     1     -12.996  12.670  64.379  1.00  0.00    -0.232 A  
HETATM   13  C   UNL     1     -12.295  11.830  63.507  1.00  0.00    -0.495 A  
HETATM   14  C   UNL     1     -10.899  11.787  63.515  1.00  0.00    -0.496 A  
HETATM   15  C   UNL     1     -10.155  12.589  64.395  1.00  0.00    -0.284 A  
HETATM   16  C   UNL     1     -10.840  13.455  65.265  1.00  0.00    -0.318 A  
ENDBRANCH   7   8
ENDBRANCH   2   7
TORSDOF 2
ENDMDL
MODEL       88
REMARK 921   NORMALIZED FREE ENERGY PREDICTED BY IDOCK:   -4.00 KCAL/MOL
REMARK 922        TOTAL FREE ENERGY PREDICTED BY IDOCK:   -4.87 KCAL/MOL
REMARK 923 INTER-LIGAND FREE ENERGY PREDICTED BY IDOCK:   -4.66 KCAL/MOL
REMARK 924 INTRA-LIGAND FREE ENERGY PREDICTED BY IDOCK:   -0.21 KCAL/MOL
REMARK 927      BINDING AFFINITY PREDICTED BY RF-SCORE:    0.00 PKD
ROOT
HETATM    1  N   UNL     1      -8.873   7.206  66.711  1.00  0.00    -0.125 N  
HETATM    2  S   UNL     1     -10.320   7.476  67.531  1.00  0.00    -0.273 S  
HETATM    3  H1  UNL     1      -8.632   6.237  66.918  1.00  0.00     0.000 HD 
HETATM    4  H2  UNL     1      -8.353   7.867  66.134  1.00  0.00     0.000 HD 
HETATM    5  O   UNL     1     -10.662   8.848  67.237  1.00  0.00    -0.273 OA 
HETATM    6  O   UNL     1     -11.155   6.370  67.121  1.00  0.00    -0.377 OA 
ENDROOT
BRANCH   2   7
HETATM    7  C   UNL     1      -9.814   7.284  69.243  1.00  0.00    -0.166 C  
BRANCH   7   8
HETATM    8  C   UNL     1     -10.924   7.517  70.200  1.00  0.00    -0.254 A  
HETATM    9  N   UNL     1     -11.540   6.458  70.753  1.00  0.00    -0.356 NA 
HETATM   10  O   UNL     1     -12.535   6.976  71.563  1.00  0.00    -0.349 OA 
HETATM   11  C   UNL     1     -12.533   8.330  71.476  1.00  0.00    -0.312 A  
HETATM   12  C   UNL     1     -13.394   9.195  72.147  1.00  0.00    -0.525 A  
HETATM   13  C   UNL     1     -13.212  10.561  71.908  1.00  0.00    -0.526 A  
HETATM   14  C   UNL     1     -12.223  11.014  71.032  1.00  0.00    -0.456 A  
HETATM   15  C   UNL     1     -11.378  10.112  70.367  1.00  0.00    -0.401 A  
HETATM   16  C   UNL     1     -11.531   8.736  70.609  1.00  0.00    -0.263 A  
ENDBRANCH   7   8
ENDBRANCH   2   7
TORSDOF 2
ENDMDL
MODEL       89
REMARK 921   NORMALIZED FREE ENERGY PREDICTED BY IDOCK:   -4.00 KCAL/MOL
REMARK 922        TOTAL FREE ENERGY PREDICTED BY IDOCK:   -4.86 KCAL/MOL
REMARK 923 INTER-LIGAND FREE ENERGY PREDICTED BY IDOCK:   -4.53 KCAL/MOL
REMARK 924 INTRA-LIGAND FREE ENERGY PREDICTED BY IDOCK:   -0.33 KCAL/MOL
REMARK 927      BINDING AFFINITY PREDICTED BY RF-SCORE:    0.00 PKD
ROOT
HETATM    1  N   UNL     1     -11.609   6.449  69.376  1.00  0.00    -0.618 N  
HETATM    2  S   UNL     1     -10.191   5.832  70.045  1.00  0.00    -0.262 S  
HETATM    3  H1  UNL     1     -11.303   7.209  68.768  1.00  0.00     0.000 HD 
HETATM    4  H2  UNL     1     -12.564   6.131  69.542  1.00  0.00     0.000 HD 
HETATM    5  O   UNL     1     -10.625   4.756  70.905  1.00  0.00    -0.105 OA 
HETATM    6  O   UNL     1      -9.343   5.606  68.897  1.00  0.00    -0.116 OA 
ENDROOT
BRANCH   2   7
HETATM    7  C   UNL     1      -9.598   7.230  71.003  1.00  0.00    -0.158 C  
BRANCH   7   8
HETATM    8  C   UNL     1     -10.694   8.117  71.466  1.00  0.00    -0.233 A  
HETATM    9  N   UNL     1     -11.511   7.688  72.442  1.00  0.00    -0.319 NA 
HETATM   10  O   UNL     1     -12.436   8.697  72.636  1.00  0.00    -0.375 OA 
HETATM   11  C   UNL     1     -12.193   9.710  71.767  1.00  0.00    -0.384 A  
HETATM   12  C   UNL     1     -12.920  10.894  71.664  1.00  0.00    -0.569 A  
HETATM   13  C   UNL     1     -12.490  11.804  70.693  1.00  0.00    -0.364 A  
HETATM   14  C   UNL     1     -11.397  11.519  69.872  1.00  0.00    -0.267 A  
HETATM   15  C   UNL     1     -10.692  10.312  69.999  1.00  0.00    -0.345 A  
HETATM   16  C   UNL     1     -11.096   9.392  70.983  1.00  0.00    -0.414 A  
ENDBRANCH   7   8
ENDBRANCH   2   7
TORSDOF 2
ENDMDL
MODEL       90
REMARK 921   NORMALIZED FREE ENERGY PREDICTED BY IDOCK:   -3.99 KCAL/MOL
REMARK 922        TOTAL FREE ENERGY PREDICTED BY IDOCK:   -4.86 KCAL/MOL
REMARK 923 INTER-LIGAND FREE ENERGY PREDICTED BY IDOCK:   -4.44 KCAL/MOL
REMARK 924 INTRA-LIGAND FREE ENERGY PREDICTED BY IDOCK:   -0.42 KCAL/MOL
REMARK 927      BINDING AFFINITY PREDICTED BY RF-SCORE:    0.00 PKD
ROOT
HETATM    1  N   UNL     1      -9.670   5.220  71.974  1.00  0.00    -0.157 N  
HETATM    2  S   UNL     1     -10.896   5.821  72.962  1.00  0.00    -0.283 S  
HETATM    3  H1  UNL     1      -9.328   6.031  71.459  1.00  0.00     0.000 HD 
HETATM    4  H2  UNL     1      -9.343   4.257  71.907  1.00  0.00     0.000 HD 
HETATM    5  O   UNL     1     -11.380   4.674  73.692  1.00  0.00    -0.302 OA 
HETATM    6  O   UNL     1     -10.278   6.949  73.622  1.00  0.00    -0.269 OA 
ENDROOT
BRANCH   2   7
HETATM    7  C   UNL     1     -12.101   6.380  71.754  1.00  0.00    -0.296 C  
BRANCH   7   8
HETATM    8  C   UNL     1     -11.633   7.552  70.974  1.00  0.00    -0.283 A  
HETATM    9  N   UNL     1     -10.712   7.369  70.013  1.00  0.00    -0.242 NA 
HETATM   10  O   UNL     1     -10.453   8.622  69.489  1.00  0.00    -0.216 OA 
HETATM   11  C   UNL     1     -11.191   9.552  70.147  1.00  0.00    -0.234 A  
HETATM   12  C   UNL     1     -11.193  10.922  69.898  1.00  0.00    -0.355 A  
HETATM   13  C   UNL     1     -12.037  11.697  70.701  1.00  0.00    -0.432 A  
HETATM   14  C   UNL     1     -12.818  11.112  71.700  1.00  0.00    -0.524 A  
HETATM   15  C   UNL     1     -12.786   9.728  71.926  1.00  0.00    -0.501 A  
HETATM   16  C   UNL     1     -11.960   8.928  71.117  1.00  0.00    -0.344 A  
ENDBRANCH   7   8
ENDBRANCH   2   7
TORSDOF 2
ENDMDL
MODEL       91
REMARK 921   NORMALIZED FREE ENERGY PREDICTED BY IDOCK:   -3.98 KCAL/MOL
REMARK 922        TOTAL FREE ENERGY PREDICTED BY IDOCK:   -4.85 KCAL/MOL
REMARK 923 INTER-LIGAND FREE ENERGY PREDICTED BY IDOCK:   -4.64 KCAL/MOL
REMARK 924 INTRA-LIGAND FREE ENERGY PREDICTED BY IDOCK:   -0.20 KCAL/MOL
REMARK 927      BINDING AFFINITY PREDICTED BY RF-SCORE:    0.00 PKD
ROOT
HETATM    1  N   UNL     1     -10.896   8.722  68.818  1.00  0.00    -0.431 N  
HETATM    2  S   UNL     1     -10.716  10.198  69.611  1.00  0.00    -0.281 S  
HETATM    3  H1  UNL     1     -10.778   8.940  67.829  1.00  0.00     0.000 HD 
HETATM    4  H2  UNL     1     -11.082   7.811  69.236  1.00  0.00     0.000 HD 
HETATM    5  O   UNL     1     -10.883   9.889  71.012  1.00  0.00    -0.321 OA 
HETATM    6  O   UNL     1      -9.478  10.721  69.080  1.00  0.00    -0.191 OA 
ENDROOT
BRANCH   2   7
HETATM    7  C   UNL     1     -12.116  11.128  68.979  1.00  0.00    -0.246 C  
BRANCH   7   8
HETATM    8  C   UNL     1     -11.731  12.462  68.454  1.00  0.00    -0.336 A  
HETATM    9  N   UNL     1     -11.550  13.475  69.318  1.00  0.00    -0.297 NA 
HETATM   10  O   UNL     1     -11.235  14.580  68.549  1.00  0.00    -0.244 OA 
HETATM   11  C   UNL     1     -11.252  14.240  67.236  1.00  0.00    -0.318 A  
HETATM   12  C   UNL     1     -10.987  15.092  66.166  1.00  0.00    -0.334 A  
HETATM   13  C   UNL     1     -11.062  14.526  64.889  1.00  0.00    -0.401 A  
HETATM   14  C   UNL     1     -11.397  13.181  64.716  1.00  0.00    -0.352 A  
HETATM   15  C   UNL     1     -11.664  12.354  65.817  1.00  0.00    -0.470 A  
HETATM   16  C   UNL     1     -11.575  12.898  67.110  1.00  0.00    -0.421 A  
ENDBRANCH   7   8
ENDBRANCH   2   7
TORSDOF 2
ENDMDL
MODEL       92
REMARK 921   NORMALIZED FREE ENERGY PREDICTED BY IDOCK:   -3.98 KCAL/MOL
REMARK 922        TOTAL FREE ENERGY PREDICTED BY IDOCK:   -4.84 KCAL/MOL
REMARK 923 INTER-LIGAND FREE ENERGY PREDICTED BY IDOCK:   -4.45 KCAL/MOL
REMARK 924 INTRA-LIGAND FREE ENERGY PREDICTED BY IDOCK:   -0.40 KCAL/MOL
REMARK 927      BINDING AFFINITY PREDICTED BY RF-SCORE:    0.00 PKD
ROOT
HETATM    1  N   UNL     1     -10.974  15.516  64.612  1.00  0.00    -0.664 N  
HETATM    2  S   UNL     1     -11.149  13.940  65.182  1.00  0.00    -0.353 S  
HETATM    3  H1  UNL     1      -9.976  15.620  64.430  1.00  0.00     0.000 HD 
HETATM    4  H2  UNL     1     -11.706  16.213  64.478  1.00  0.00     0.000 HD 
HETATM    5  O   UNL     1     -12.562  13.794  65.439  1.00  0.00    -0.469 OA 
HETATM    6  O   UNL     1     -10.459  13.143  64.193  1.00  0.00    -0.421 OA 
ENDROOT
BRANCH   2   7
HETATM    7  C   UNL     1     -10.212  13.996  66.712  1.00  0.00    -0.264 C  
BRANCH   7   8
HETATM    8  C   UNL     1     -10.103  15.367  67.270  1.00  0.00    -0.238 A  
HETATM    9  N   UNL     1     -11.226  16.052  67.541  1.00  0.00    -0.207 NA 
HETATM   10  O   UNL     1     -10.817  17.286  68.011  1.00  0.00    -0.381 OA 
HETATM   11  C   UNL     1      -9.462  17.352  67.997  1.00  0.00    -0.281 A  
HETATM   12  C   UNL     1      -8.690  18.440  68.396  1.00  0.00    -0.337 A  
HETATM   13  C   UNL     1      -7.303  18.288  68.296  1.00  0.00    -0.277 A  
HETATM   14  C   UNL     1      -6.741  17.105  67.810  1.00  0.00    -0.162 A  
HETATM   15  C   UNL     1      -7.551  16.031  67.410  1.00  0.00    -0.200 A  
HETATM   16  C   UNL     1      -8.947  16.156  67.521  1.00  0.00    -0.197 A  
ENDBRANCH   7   8
ENDBRANCH   2   7
TORSDOF 2
ENDMDL
MODEL       93
REMARK 921   NORMALIZED FREE ENERGY PREDICTED BY IDOCK:   -3.98 KCAL/MOL
REMARK 922        TOTAL FREE ENERGY PREDICTED BY IDOCK:   -4.84 KCAL/MOL
REMARK 923 INTER-LIGAND FREE ENERGY PREDICTED BY IDOCK:   -4.44 KCAL/MOL
REMARK 924 INTRA-LIGAND FREE ENERGY PREDICTED BY IDOCK:   -0.40 KCAL/MOL
REMARK 927      BINDING AFFINITY PREDICTED BY RF-SCORE:    0.00 PKD
ROOT
HETATM    1  N   UNL     1     -11.784   9.634  69.663  1.00  0.00    -0.445 N  
HETATM    2  S   UNL     1     -11.827   9.367  71.327  1.00  0.00    -0.387 S  
HETATM    3  H1  UNL     1     -12.762   9.685  69.381  1.00  0.00     0.000 HD 
HETATM    4  H2  UNL     1     -10.959   9.725  69.070  1.00  0.00     0.000 HD 
HETATM    5  O   UNL     1     -10.441   9.294  71.727  1.00  0.00    -0.337 OA 
HETATM    6  O   UNL     1     -12.716  10.397  71.813  1.00  0.00    -0.416 OA 
ENDROOT
BRANCH   2   7
HETATM    7  C   UNL     1     -12.615   7.757  71.420  1.00  0.00    -0.317 C  
BRANCH   7   8
HETATM    8  C   UNL     1     -11.700   6.645  71.061  1.00  0.00    -0.360 A  
HETATM    9  N   UNL     1     -11.381   6.456  69.769  1.00  0.00    -0.416 NA 
HETATM   10  O   UNL     1     -10.553   5.349  69.740  1.00  0.00    -0.309 OA 
HETATM   11  C   UNL     1     -10.397   4.863  70.997  1.00  0.00    -0.147 A  
HETATM   12  C   UNL     1      -9.636   3.754  71.359  1.00  0.00    -0.236 A  
HETATM   13  C   UNL     1      -9.618   3.430  72.719  1.00  0.00    -0.179 A  
HETATM   14  C   UNL     1     -10.340   4.183  73.648  1.00  0.00    -0.237 A  
HETATM   15  C   UNL     1     -11.102   5.291  73.246  1.00  0.00    -0.376 A  
HETATM   16  C   UNL     1     -11.118   5.645  71.886  1.00  0.00    -0.278 A  
ENDBRANCH   7   8
ENDBRANCH   2   7
TORSDOF 2
ENDMDL
MODEL       94
REMARK 921   NORMALIZED FREE ENERGY PREDICTED BY IDOCK:   -3.96 KCAL/MOL
REMARK 922        TOTAL FREE ENERGY PREDICTED BY IDOCK:   -4.82 KCAL/MOL
REMARK 923 INTER-LIGAND FREE ENERGY PREDICTED BY IDOCK:   -4.45 KCAL/MOL
REMARK 924 INTRA-LIGAND FREE ENERGY PREDICTED BY IDOCK:   -0.37 KCAL/MOL
REMARK 927      BINDING AFFINITY PREDICTED BY RF-SCORE:    0.00 PKD
ROOT
HETATM    1  N   UNL     1      -8.791   9.940  69.326  1.00  0.00    -0.161 N  
HETATM    2  S   UNL     1      -8.361   9.945  67.696  1.00  0.00    -0.114 S  
HETATM    3  H1  UNL     1      -9.084   8.982  69.517  1.00  0.00     0.000 HD 
HETATM    4  H2  UNL     1      -8.764  10.724  69.978  1.00  0.00     0.000 HD 
HETATM    5  O   UNL     1      -7.946  11.301  67.426  1.00  0.00    -0.122 OA 
HETATM    6  O   UNL     1      -7.455   8.825  67.581  1.00  0.00    -0.091 OA 
ENDROOT
BRANCH   2   7
HETATM    7  C   UNL     1      -9.928   9.574  66.901  1.00  0.00    -0.216 C  
BRANCH   7   8
HETATM    8  C   UNL     1     -10.783  10.774  66.728  1.00  0.00    -0.231 A  
HETATM    9  N   UNL     1     -11.449  11.259  67.790  1.00  0.00    -0.458 NA 
HETATM   10  O   UNL     1     -12.174  12.340  67.324  1.00  0.00    -0.485 OA 
HETATM   11  C   UNL     1     -11.967  12.487  65.991  1.00  0.00    -0.392 A  
HETATM   12  C   UNL     1     -12.532  13.465  65.177  1.00  0.00    -0.509 A  
HETATM   13  C   UNL     1     -12.177  13.429  63.825  1.00  0.00    -0.482 A  
HETATM   14  C   UNL     1     -11.311  12.449  63.334  1.00  0.00    -0.507 A  
HETATM   15  C   UNL     1     -10.766  11.474  64.183  1.00  0.00    -0.428 A  
HETATM   16  C   UNL     1     -11.094  11.505  65.549  1.00  0.00    -0.254 A  
ENDBRANCH   7   8
ENDBRANCH   2   7
TORSDOF 2
ENDMDL
MODEL       95
REMARK 921   NORMALIZED FREE ENERGY PREDICTED BY IDOCK:   -3.96 KCAL/MOL
REMARK 922        TOTAL FREE ENERGY PREDICTED BY IDOCK:   -4.82 KCAL/MOL
REMARK 923 INTER-LIGAND FREE ENERGY PREDICTED BY IDOCK:   -4.61 KCAL/MOL
REMARK 924 INTRA-LIGAND FREE ENERGY PREDICTED BY IDOCK:   -0.21 KCAL/MOL
REMARK 927      BINDING AFFINITY PREDICTED BY RF-SCORE:    0.00 PKD
ROOT
HETATM    1  N   UNL     1      -9.712  12.588  64.669  1.00  0.00    -0.502 N  
HETATM    2  S   UNL     1      -9.988  11.697  66.072  1.00  0.00    -0.237 S  
HETATM    3  H1  UNL     1      -9.675  13.559  64.979  1.00  0.00     0.000 HD 
HETATM    4  H2  UNL     1      -9.605  12.234  63.719  1.00  0.00     0.000 HD 
HETATM    5  O   UNL     1     -10.040  10.322  65.634  1.00  0.00    -0.273 OA 
HETATM    6  O   UNL     1      -8.975  12.177  66.985  1.00  0.00    -0.187 OA 
ENDROOT
BRANCH   2   7
HETATM    7  C   UNL     1     -11.611  12.283  66.568  1.00  0.00    -0.377 C  
BRANCH   7   8
HETATM    8  C   UNL     1     -11.820  12.227  68.036  1.00  0.00    -0.305 A  
HETATM    9  N   UNL     1     -11.947  11.029  68.631  1.00  0.00    -0.536 NA 
HETATM   10  O   UNL     1     -12.159  11.290  69.972  1.00  0.00    -0.306 OA 
HETATM   11  C   UNL     1     -12.185  12.631  70.176  1.00  0.00    -0.238 A  
HETATM   12  C   UNL     1     -12.378  13.270  71.398  1.00  0.00    -0.172 A  
HETATM   13  C   UNL     1     -12.367  14.668  71.377  1.00  0.00    -0.411 A  
HETATM   14  C   UNL     1     -12.182  15.368  70.182  1.00  0.00    -0.407 A  
HETATM   15  C   UNL     1     -11.997  14.691  68.967  1.00  0.00    -0.318 A  
HETATM   16  C   UNL     1     -11.984  13.285  68.971  1.00  0.00    -0.336 A  
ENDBRANCH   7   8
ENDBRANCH   2   7
TORSDOF 2
ENDMDL
MODEL       96
REMARK 921   NORMALIZED FREE ENERGY PREDICTED BY IDOCK:   -3.94 KCAL/MOL
REMARK 922        TOTAL FREE ENERGY PREDICTED BY IDOCK:   -4.80 KCAL/MOL
REMARK 923 INTER-LIGAND FREE ENERGY PREDICTED BY IDOCK:   -4.41 KCAL/MOL
REMARK 924 INTRA-LIGAND FREE ENERGY PREDICTED BY IDOCK:   -0.39 KCAL/MOL
REMARK 927      BINDING AFFINITY PREDICTED BY RF-SCORE:    0.00 PKD
ROOT
HETATM    1  N   UNL     1      -9.970   9.534  65.228  1.00  0.00    -0.404 N  
HETATM    2  S   UNL     1      -9.458   8.521  66.474  1.00  0.00    -0.236 S  
HETATM    3  H1  UNL     1      -9.165  10.127  65.025  1.00  0.00     0.000 HD 
HETATM    4  H2  UNL     1     -10.883   9.549  64.775  1.00  0.00     0.000 HD 
HETATM    5  O   UNL     1     -10.597   7.681  66.760  1.00  0.00    -0.325 OA 
HETATM    6  O   UNL     1      -8.208   7.985  65.985  1.00  0.00    -0.107 OA 
ENDROOT
BRANCH   2   7
HETATM    7  C   UNL     1      -9.164   9.693  67.802  1.00  0.00    -0.124 C  
BRANCH   7   8
HETATM    8  C   UNL     1     -10.414  10.125  68.475  1.00  0.00    -0.195 A  
HETATM    9  N   UNL     1     -11.207  11.021  67.864  1.00  0.00    -0.292 NA 
HETATM   10  O   UNL     1     -12.261  11.250  68.729  1.00  0.00    -0.532 OA 
HETATM   11  C   UNL     1     -12.090  10.520  69.859  1.00  0.00    -0.245 A  
HETATM   12  C   UNL     1     -12.946  10.495  70.957  1.00  0.00    -0.475 A  
HETATM   13  C   UNL     1     -12.571   9.666  72.019  1.00  0.00    -0.443 A  
HETATM   14  C   UNL     1     -11.391   8.919  71.968  1.00  0.00    -0.427 A  
HETATM   15  C   UNL     1     -10.548   8.975  70.848  1.00  0.00    -0.316 A  
HETATM   16  C   UNL     1     -10.917   9.787  69.761  1.00  0.00    -0.287 A  
ENDBRANCH   7   8
ENDBRANCH   2   7
TORSDOF 2
ENDMDL
MODEL       97
REMARK 921   NORMALIZED FREE ENERGY PREDICTED BY IDOCK:   -3.94 KCAL/MOL
REMARK 922        TOTAL FREE ENERGY PREDICTED BY IDOCK:   -4.79 KCAL/MOL
REMARK 923 INTER-LIGAND FREE ENERGY PREDICTED BY IDOCK:   -4.71 KCAL/MOL
REMARK 924 INTRA-LIGAND FREE ENERGY PREDICTED BY IDOCK:   -0.08 KCAL/MOL
REMARK 927      BINDING AFFINITY PREDICTED BY RF-SCORE:    0.00 PKD
ROOT
HETATM    1  N   UNL     1     -12.587   7.781  70.632  1.00  0.00    -0.476 N  
HETATM    2  S   UNL     1     -12.371   8.799  71.958  1.00  0.00    -0.392 S  
HETATM    3  H1  UNL     1     -11.651   7.649  70.248  1.00  0.00     0.000 HD 
HETATM    4  H2  UNL     1     -13.461   7.385  70.288  1.00  0.00     0.000 HD 
HETATM    5  O   UNL     1     -13.696   8.985  72.501  1.00  0.00    -0.472 OA 
HETATM    6  O   UNL     1     -11.314   8.160  72.709  1.00  0.00    -0.397 OA 
ENDROOT
BRANCH   2   7
HETATM    7  C   UNL     1     -11.772  10.300  71.177  1.00  0.00    -0.341 C  
BRANCH   7   8
HETATM    8  C   UNL     1     -11.165  10.053  69.845  1.00  0.00    -0.275 A  
HETATM    9  N   UNL     1     -10.358   8.991  69.684  1.00  0.00    -0.206 NA 
HETATM   10  O   UNL     1      -9.925   9.037  68.371  1.00  0.00    -0.168 OA 
HETATM   11  C   UNL     1     -10.446  10.130  67.758  1.00  0.00    -0.232 A  
HETATM   12  C   UNL     1     -10.231  10.508  66.435  1.00  0.00    -0.296 A  
HETATM   13  C   UNL     1     -10.870  11.677  66.011  1.00  0.00    -0.339 A  
HETATM   14  C   UNL     1     -11.670  12.418  66.886  1.00  0.00    -0.432 A  
HETATM   15  C   UNL     1     -11.859  12.010  68.215  1.00  0.00    -0.351 A  
HETATM   16  C   UNL     1     -11.240  10.827  68.655  1.00  0.00    -0.333 A  
ENDBRANCH   7   8
ENDBRANCH   2   7
TORSDOF 2
ENDMDL
MODEL       98
REMARK 921   NORMALIZED FREE ENERGY PREDICTED BY IDOCK:   -3.92 KCAL/MOL
REMARK 922        TOTAL FREE ENERGY PREDICTED BY IDOCK:   -4.78 KCAL/MOL
REMARK 923 INTER-LIGAND FREE ENERGY PREDICTED BY IDOCK:   -4.40 KCAL/MOL
REMARK 924 INTRA-LIGAND FREE ENERGY PREDICTED BY IDOCK:   -0.38 KCAL/MOL
REMARK 927      BINDING AFFINITY PREDICTED BY RF-SCORE:    0.00 PKD
ROOT
HETATM    1  N   UNL     1      -8.529  18.677  68.232  1.00  0.00    -0.314 N  
HETATM    2  S   UNL     1      -9.771  18.520  67.103  1.00  0.00    -0.316 S  
HETATM    3  H1  UNL     1      -8.126  17.743  68.309  1.00  0.00     0.000 HD 
HETATM    4  H2  UNL     1      -8.243  19.521  68.728  1.00  0.00     0.000 HD 
HETATM    5  O   UNL     1     -10.341  19.842  66.993  1.00  0.00    -0.411 OA 
HETATM    6  O   UNL     1      -9.134  17.860  65.986  1.00  0.00    -0.504 OA 
ENDROOT
BRANCH   2   7
HETATM    7  C   UNL     1     -10.891  17.397  67.944  1.00  0.00    -0.270 C  
BRANCH   7   8
HETATM    8  C   UNL     1     -10.339  16.026  68.078  1.00  0.00    -0.266 A  
HETATM    9  N   UNL     1      -9.207  15.845  68.779  1.00  0.00    -0.205 NA 
HETATM   10  O   UNL     1      -8.924  14.494  68.704  1.00  0.00    -0.184 OA 
HETATM   11  C   UNL     1      -9.861  13.874  67.944  1.00  0.00    -0.228 A  
HETATM   12  C   UNL     1      -9.904  12.515  67.642  1.00  0.00    -0.202 A  
HETATM   13  C   UNL     1     -10.965  12.090  66.836  1.00  0.00    -0.328 A  
HETATM   14  C   UNL     1     -11.915  12.997  66.360  1.00  0.00    -0.466 A  
HETATM   15  C   UNL     1     -11.836  14.362  66.679  1.00  0.00    -0.417 A  
HETATM   16  C   UNL     1     -10.788  14.805  67.504  1.00  0.00    -0.287 A  
ENDBRANCH   7   8
ENDBRANCH   2   7
TORSDOF 2
ENDMDL
MODEL       99
REMARK 921   NORMALIZED FREE ENERGY PREDICTED BY IDOCK:   -3.91 KCAL/MOL
REMARK 922        TOTAL FREE ENERGY PREDICTED BY IDOCK:   -4.76 KCAL/MOL
REMARK 923 INTER-LIGAND FREE ENERGY PREDICTED BY IDOCK:   -4.54 KCAL/MOL
REMARK 924 INTRA-LIGAND FREE ENERGY PREDICTED BY IDOCK:   -0.23 KCAL/MOL
REMARK 927      BINDING AFFINITY PREDICTED BY RF-SCORE:    0.00 PKD
ROOT
HETATM    1  N   UNL     1     -11.719   7.380  73.095  1.00  0.00    -0.546 N  
HETATM    2  S   UNL     1     -12.416   8.200  71.798  1.00  0.00    -0.342 S  
HETATM    3  H1  UNL     1     -11.653   8.075  73.839  1.00  0.00     0.000 HD 
HETATM    4  H2  UNL     1     -11.428   6.404  73.129  1.00  0.00     0.000 HD 
HETATM    5  O   UNL     1     -12.510   7.216  70.746  1.00  0.00    -0.301 OA 
HETATM    6  O   UNL     1     -13.585   8.822  72.377  1.00  0.00    -0.409 OA 
ENDROOT
BRANCH   2   7
HETATM    7  C   UNL     1     -11.165   9.432  71.426  1.00  0.00    -0.381 C  
BRANCH   7   8
HETATM    8  C   UNL     1     -11.314  10.013  70.069  1.00  0.00    -0.275 A  
HETATM    9  N   UNL     1     -12.232  10.972  69.868  1.00  0.00    -0.339 NA 
HETATM   10  O   UNL     1     -12.164  11.290  68.524  1.00  0.00    -0.588 OA 
HETATM   11  C   UNL     1     -11.233  10.511  67.919  1.00  0.00    -0.289 A  
HETATM   12  C   UNL     1     -10.889  10.543  66.570  1.00  0.00    -0.128 A  
HETATM   13  C   UNL     1      -9.897   9.646  66.160  1.00  0.00    -0.334 A  
HETATM   14  C   UNL     1      -9.304   8.765  67.067  1.00  0.00    -0.200 A  
HETATM   15  C   UNL     1      -9.681   8.755  68.419  1.00  0.00    -0.175 A  
HETATM   16  C   UNL     1     -10.662   9.663  68.855  1.00  0.00    -0.230 A  
ENDBRANCH   7   8
ENDBRANCH   2   7
TORSDOF 2
ENDMDL
MODEL      100
REMARK 921   NORMALIZED FREE ENERGY PREDICTED BY IDOCK:   -3.90 KCAL/MOL
REMARK 922        TOTAL FREE ENERGY PREDICTED BY IDOCK:   -4.75 KCAL/MOL
REMARK 923 INTER-LIGAND FREE ENERGY PREDICTED BY IDOCK:   -4.32 KCAL/MOL
REMARK 924 INTRA-LIGAND FREE ENERGY PREDICTED BY IDOCK:   -0.43 KCAL/MOL
REMARK 927      BINDING AFFINITY PREDICTED BY RF-SCORE:    0.00 PKD
ROOT
HETATM    1  N   UNL     1     -11.515   6.294  67.641  1.00  0.00    -0.561 N  
HETATM    2  S   UNL     1     -10.897   6.224  69.207  1.00  0.00    -0.377 S  
HETATM    3  H1  UNL     1     -10.733   6.036  67.039  1.00  0.00     0.000 HD 
HETATM    4  H2  UNL     1     -12.463   6.540  67.357  1.00  0.00     0.000 HD 
HETATM    5  O   UNL     1     -12.004   6.588  70.059  1.00  0.00    -0.358 OA 
HETATM    6  O   UNL     1     -10.274   4.921  69.268  1.00  0.00    -0.207 OA 
ENDROOT
BRANCH   2   7
HETATM    7  C   UNL     1      -9.652   7.517  69.170  1.00  0.00    -0.157 C  
BRANCH   7   8
HETATM    8  C   UNL     1     -10.057   8.682  68.345  1.00  0.00    -0.191 A  
HETATM    9  N   UNL     1      -9.747   8.694  67.038  1.00  0.00    -0.182 NA 
HETATM   10  O   UNL     1     -10.216   9.899  66.546  1.00  0.00    -0.231 OA 
HETATM   11  C   UNL     1     -10.778  10.613  67.553  1.00  0.00    -0.272 A  
HETATM   12  C   UNL     1     -11.355  11.876  67.439  1.00  0.00    -0.389 A  
HETATM   13  C   UNL     1     -11.877  12.429  68.613  1.00  0.00    -0.348 A  
HETATM   14  C   UNL     1     -11.804  11.741  69.827  1.00  0.00    -0.420 A  
HETATM   15  C   UNL     1     -11.209  10.473  69.906  1.00  0.00    -0.374 A  
HETATM   16  C   UNL     1     -10.697   9.891  68.733  1.00  0.00    -0.247 A  
ENDBRANCH   7   8
ENDBRANCH   2   7
TORSDOF 2
ENDMDL
MODEL      101
REMARK 921   NORMALIZED FREE ENERGY PREDICTED BY IDOCK:   -3.88 KCAL/MOL
REMARK 922        TOTAL FREE ENERGY PREDICTED BY IDOCK:   -4.73 KCAL/MOL
REMARK 923 INTER-LIGAND FREE ENERGY PREDICTED BY IDOCK:   -4.51 KCAL/MOL
REMARK 924 INTRA-LIGAND FREE ENERGY PREDICTED BY IDOCK:   -0.22 KCAL/MOL
REMARK 927      BINDING AFFINITY PREDICTED BY RF-SCORE:    0.00 PKD
ROOT
HETATM    1  N   UNL     1      -9.770  13.822  65.469  1.00  0.00    -0.521 N  
HETATM    2  S   UNL     1     -10.486  12.486  66.205  1.00  0.00    -0.251 S  
HETATM    3  H1  UNL     1      -8.783  13.578  65.388  1.00  0.00     0.000 HD 
HETATM    4  H2  UNL     1     -10.224  14.684  65.170  1.00  0.00     0.000 HD 
HETATM    5  O   UNL     1     -11.884  12.830  66.320  1.00  0.00    -0.390 OA 
HETATM    6  O   UNL     1     -10.031  11.372  65.405  1.00  0.00    -0.223 OA 
ENDROOT
BRANCH   2   7
HETATM    7  C   UNL     1      -9.685  12.477  67.812  1.00  0.00    -0.202 C  
BRANCH   7   8
HETATM    8  C   UNL     1     -10.350  11.573  68.782  1.00  0.00    -0.196 A  
HETATM    9  N   UNL     1     -10.092  10.255  68.728  1.00  0.00    -0.178 NA 
HETATM   10  O   UNL     1     -10.866   9.674  69.715  1.00  0.00    -0.230 OA 
HETATM   11  C   UNL     1     -11.601  10.629  70.338  1.00  0.00    -0.351 A  
HETATM   12  C   UNL     1     -12.499  10.420  71.382  1.00  0.00    -0.521 A  
HETATM   13  C   UNL     1     -13.151  11.555  71.876  1.00  0.00    -0.492 A  
HETATM   14  C   UNL     1     -12.911  12.818  71.332  1.00  0.00    -0.371 A  
HETATM   15  C   UNL     1     -12.004  12.990  70.275  1.00  0.00    -0.360 A  
HETATM   16  C   UNL     1     -11.323  11.865  69.777  1.00  0.00    -0.223 A  
ENDBRANCH   7   8
ENDBRANCH   2   7
TORSDOF 2
ENDMDL
MODEL      102
REMARK 921   NORMALIZED FREE ENERGY PREDICTED BY IDOCK:   -3.85 KCAL/MOL
REMARK 922        TOTAL FREE ENERGY PREDICTED BY IDOCK:   -4.69 KCAL/MOL
REMARK 923 INTER-LIGAND FREE ENERGY PREDICTED BY IDOCK:   -4.44 KCAL/MOL
REMARK 924 INTRA-LIGAND FREE ENERGY PREDICTED BY IDOCK:   -0.25 KCAL/MOL
REMARK 927      BINDING AFFINITY PREDICTED BY RF-SCORE:    0.00 PKD
ROOT
HETATM    1  N   UNL     1      -9.433  12.517  63.769  1.00  0.00    -0.260 N  
HETATM    2  S   UNL     1      -9.968  11.458  64.966  1.00  0.00    -0.279 S  
HETATM    3  H1  UNL     1      -9.345  13.419  64.238  1.00  0.00     0.000 HD 
HETATM    4  H2  UNL     1      -9.239  12.303  62.791  1.00  0.00     0.000 HD 
HETATM    5  O   UNL     1     -10.092  10.182  64.302  1.00  0.00    -0.253 OA 
HETATM    6  O   UNL     1      -9.039  11.675  66.052  1.00  0.00    -0.214 OA 
ENDROOT
BRANCH   2   7
HETATM    7  C   UNL     1     -11.579  12.141  65.368  1.00  0.00    -0.330 C  
BRANCH   7   8
HETATM    8  C   UNL     1     -11.537  13.075  66.520  1.00  0.00    -0.356 A  
HETATM    9  N   UNL     1     -12.088  12.698  67.685  1.00  0.00    -0.396 NA 
HETATM   10  O   UNL     1     -11.927  13.768  68.547  1.00  0.00    -0.356 OA 
HETATM   11  C   UNL     1     -11.308  14.786  67.898  1.00  0.00    -0.316 A  
HETATM   12  C   UNL     1     -10.980  16.025  68.442  1.00  0.00    -0.331 A  
HETATM   13  C   UNL     1     -10.343  16.930  67.587  1.00  0.00    -0.317 A  
HETATM   14  C   UNL     1     -10.068  16.594  66.259  1.00  0.00    -0.342 A  
HETATM   15  C   UNL     1     -10.419  15.338  65.742  1.00  0.00    -0.365 A  
HETATM   16  C   UNL     1     -11.043  14.407  66.591  1.00  0.00    -0.326 A  
ENDBRANCH   7   8
ENDBRANCH   2   7
TORSDOF 2
ENDMDL
MODEL      103
REMARK 921   NORMALIZED FREE ENERGY PREDICTED BY IDOCK:   -3.83 KCAL/MOL
REMARK 922        TOTAL FREE ENERGY PREDICTED BY IDOCK:   -4.68 KCAL/MOL
REMARK 923 INTER-LIGAND FREE ENERGY PREDICTED BY IDOCK:   -4.23 KCAL/MOL
REMARK 924 INTRA-LIGAND FREE ENERGY PREDICTED BY IDOCK:   -0.45 KCAL/MOL
REMARK 927      BINDING AFFINITY PREDICTED BY RF-SCORE:    0.00 PKD
ROOT
HETATM    1  N   UNL     1     -11.091   8.861  68.976  1.00  0.00    -0.428 N  
HETATM    2  S   UNL     1     -10.559  10.066  70.027  1.00  0.00    -0.303 S  
HETATM    3  H1  UNL     1     -12.059   9.105  68.765  1.00  0.00     0.000 HD 
HETATM    4  H2  UNL     1     -10.561   8.063  68.626  1.00  0.00     0.000 HD 
HETATM    5  O   UNL     1      -9.189   9.720  70.324  1.00  0.00    -0.246 OA 
HETATM    6  O   UNL     1     -10.915  11.291  69.348  1.00  0.00    -0.242 OA 
ENDROOT
BRANCH   2   7
HETATM    7  C   UNL     1     -11.619   9.805  71.452  1.00  0.00    -0.378 C  
BRANCH   7   8
HETATM    8  C   UNL     1     -11.826   8.368  71.760  1.00  0.00    -0.316 A  
HETATM    9  N   UNL     1     -12.905   7.743  71.261  1.00  0.00    -0.275 NA 
HETATM   10  O   UNL     1     -12.848   6.445  71.735  1.00  0.00    -0.210 OA 
HETATM   11  C   UNL     1     -11.759   6.299  72.531  1.00  0.00    -0.204 A  
HETATM   12  C   UNL     1     -11.374   5.133  73.188  1.00  0.00    -0.385 A  
HETATM   13  C   UNL     1     -10.211   5.210  73.961  1.00  0.00    -0.270 A  
HETATM   14  C   UNL     1      -9.493   6.404  74.064  1.00  0.00    -0.197 A  
HETATM   15  C   UNL     1      -9.914   7.562  73.393  1.00  0.00    -0.378 A  
HETATM   16  C   UNL     1     -11.070   7.500  72.596  1.00  0.00    -0.398 A  
ENDBRANCH   7   8
ENDBRANCH   2   7
TORSDOF 2
ENDMDL
MODEL      104
REMARK 921   NORMALIZED FREE ENERGY PREDICTED BY IDOCK:   -3.83 KCAL/MOL
REMARK 922        TOTAL FREE ENERGY PREDICTED BY IDOCK:   -4.67 KCAL/MOL
REMARK 923 INTER-LIGAND FREE ENERGY PREDICTED BY IDOCK:   -5.04 KCAL/MOL
REMARK 924 INTRA-LIGAND FREE ENERGY PREDICTED BY IDOCK:    0.36 KCAL/MOL
REMARK 927      BINDING AFFINITY PREDICTED BY RF-SCORE:    0.00 PKD
ROOT
HETATM    1  N   UNL     1     -14.384  13.971  72.118  1.00  0.00    -0.540 N  
HETATM    2  S   UNL     1     -12.937  14.642  71.573  1.00  0.00    -0.364 S  
HETATM    3  H1  UNL     1     -14.112  13.106  72.586  1.00  0.00     0.000 HD 
HETATM    4  H2  UNL     1     -15.325  14.348  72.006  1.00  0.00     0.000 HD 
HETATM    5  O   UNL     1     -13.323  15.866  70.912  1.00  0.00    -0.498 OA 
HETATM    6  O   UNL     1     -12.094  14.633  72.747  1.00  0.00    -0.215 OA 
ENDROOT
BRANCH   2   7
HETATM    7  C   UNL     1     -12.384  13.411  70.390  1.00  0.00    -0.312 C  
BRANCH   7   8
HETATM    8  C   UNL     1     -12.434  12.030  70.930  1.00  0.00    -0.288 A  
HETATM    9  N   UNL     1     -13.249  11.764  71.965  1.00  0.00    -0.464 NA 
HETATM   10  O   UNL     1     -13.061  10.427  72.265  1.00  0.00    -0.397 OA 
HETATM   11  C   UNL     1     -12.124   9.902  71.436  1.00  0.00    -0.413 A  
HETATM   12  C   UNL     1     -11.670   8.586  71.442  1.00  0.00    -0.346 A  
HETATM   13  C   UNL     1     -10.694   8.261  70.494  1.00  0.00    -0.238 A  
HETATM   14  C   UNL     1     -10.204   9.222  69.607  1.00  0.00    -0.219 A  
HETATM   15  C   UNL     1     -10.680  10.542  69.634  1.00  0.00    -0.302 A  
HETATM   16  C   UNL     1     -11.675  10.883  70.566  1.00  0.00    -0.441 A  
ENDBRANCH   7   8
ENDBRANCH   2   7
TORSDOF 2
ENDMDL
MODEL      105
REMARK 921   NORMALIZED FREE ENERGY PREDICTED BY IDOCK:   -3.82 KCAL/MOL
REMARK 922        TOTAL FREE ENERGY PREDICTED BY IDOCK:   -4.67 KCAL/MOL
REMARK 923 INTER-LIGAND FREE ENERGY PREDICTED BY IDOCK:   -4.28 KCAL/MOL
REMARK 924 INTRA-LIGAND FREE ENERGY PREDICTED BY IDOCK:   -0.39 KCAL/MOL
REMARK 927      BINDING AFFINITY PREDICTED BY RF-SCORE:    0.00 PKD
ROOT
HETATM    1  N   UNL     1      -8.754   8.938  67.788  1.00  0.00    -0.125 N  
HETATM    2  S   UNL     1     -10.171   9.064  66.885  1.00  0.00    -0.261 S  
HETATM    3  H1  UNL     1      -9.063   8.697  68.729  1.00  0.00     0.000 HD 
HETATM    4  H2  UNL     1      -7.796   9.074  67.464  1.00  0.00     0.000 HD 
HETATM    5  O   UNL     1      -9.732   9.405  65.552  1.00  0.00    -0.284 OA 
HETATM    6  O   UNL     1     -10.869   7.831  67.174  1.00  0.00    -0.313 OA 
ENDROOT
BRANCH   2   7
HETATM    7  C   UNL     1     -10.989  10.452  67.676  1.00  0.00    -0.312 C  
BRANCH   7   8
HETATM    8  C   UNL     1     -10.447  11.763  67.241  1.00  0.00    -0.214 A  
HETATM    9  N   UNL     1      -9.277  12.186  67.750  1.00  0.00    -0.182 NA 
HETATM   10  O   UNL     1      -9.047  13.431  67.195  1.00  0.00    -0.217 OA 
HETATM   11  C   UNL     1     -10.080  13.764  66.381  1.00  0.00    -0.295 A  
HETATM   12  C   UNL     1     -10.201  14.945  65.652  1.00  0.00    -0.382 A  
HETATM   13  C   UNL     1     -11.356  15.079  64.875  1.00  0.00    -0.419 A  
HETATM   14  C   UNL     1     -12.330  14.078  64.853  1.00  0.00    -0.447 A  
HETATM   15  C   UNL     1     -12.178  12.904  65.606  1.00  0.00    -0.519 A  
HETATM   16  C   UNL     1     -11.015  12.741  66.378  1.00  0.00    -0.305 A  
ENDBRANCH   7   8
ENDBRANCH   2   7
TORSDOF 2
ENDMDL
MODEL      106
REMARK 921   NORMALIZED FREE ENERGY PREDICTED BY IDOCK:   -3.82 KCAL/MOL
REMARK 922        TOTAL FREE ENERGY PREDICTED BY IDOCK:   -4.67 KCAL/MOL
REMARK 923 INTER-LIGAND FREE ENERGY PREDICTED BY IDOCK:   -4.39 KCAL/MOL
REMARK 924 INTRA-LIGAND FREE ENERGY PREDICTED BY IDOCK:   -0.27 KCAL/MOL
REMARK 927      BINDING AFFINITY PREDICTED BY RF-SCORE:    0.00 PKD
ROOT
HETATM    1  N   UNL     1     -11.179  12.675  69.541  1.00  0.00    -0.465 N  
HETATM    2  S   UNL     1     -10.744  11.876  68.123  1.00  0.00    -0.227 S  
HETATM    3  H1  UNL     1     -10.339  13.179  69.826  1.00  0.00     0.000 HD 
HETATM    4  H2  UNL     1     -12.084  12.659  70.010  1.00  0.00     0.000 HD 
HETATM    5  O   UNL     1     -11.933  11.163  67.719  1.00  0.00    -0.630 OA 
HETATM    6  O   UNL     1     -10.157  12.918  67.311  1.00  0.00    -0.227 OA 
ENDROOT
BRANCH   2   7
HETATM    7  C   UNL     1      -9.478  10.747  68.711  1.00  0.00    -0.182 C  
BRANCH   7   8
HETATM    8  C   UNL     1     -10.013   9.401  69.036  1.00  0.00    -0.177 A  
HETATM    9  N   UNL     1      -9.850   8.404  68.151  1.00  0.00    -0.163 NA 
HETATM   10  O   UNL     1     -10.469   7.298  68.705  1.00  0.00    -0.193 OA 
HETATM   11  C   UNL     1     -11.020   7.635  69.898  1.00  0.00    -0.200 A  
HETATM   12  C   UNL     1     -11.727   6.783  70.743  1.00  0.00    -0.439 A  
HETATM   13  C   UNL     1     -12.210   7.346  71.930  1.00  0.00    -0.344 A  
HETATM   14  C   UNL     1     -11.993   8.693  72.228  1.00  0.00    -0.438 A  
HETATM   15  C   UNL     1     -11.282   9.524  71.348  1.00  0.00    -0.452 A  
HETATM   16  C   UNL     1     -10.772   8.973  70.160  1.00  0.00    -0.258 A  
ENDBRANCH   7   8
ENDBRANCH   2   7
TORSDOF 2
ENDMDL
MODEL      107
REMARK 921   NORMALIZED FREE ENERGY PREDICTED BY IDOCK:   -3.82 KCAL/MOL
REMARK 922        TOTAL FREE ENERGY PREDICTED BY IDOCK:   -4.66 KCAL/MOL
REMARK 923 INTER-LIGAND FREE ENERGY PREDICTED BY IDOCK:   -4.26 KCAL/MOL
REMARK 924 INTRA-LIGAND FREE ENERGY PREDICTED BY IDOCK:   -0.40 KCAL/MOL
REMARK 927      BINDING AFFINITY PREDICTED BY RF-SCORE:    0.00 PKD
ROOT
HETATM    1  N   UNL     1     -11.544  12.204  69.730  1.00  0.00    -0.457 N  
HETATM    2  S   UNL     1     -10.924  12.238  68.163  1.00  0.00    -0.248 S  
HETATM    3  H1  UNL     1     -10.797  12.576  70.316  1.00  0.00     0.000 HD 
HETATM    4  H2  UNL     1     -12.465  11.882  70.027  1.00  0.00     0.000 HD 
HETATM    5  O   UNL     1     -11.982  11.712  67.334  1.00  0.00    -0.621 OA 
HETATM    6  O   UNL     1     -10.434  13.590  68.021  1.00  0.00    -0.231 OA 
ENDROOT
BRANCH   2   7
HETATM    7  C   UNL     1      -9.556  11.081  68.284  1.00  0.00    -0.171 C  
BRANCH   7   8
HETATM    8  C   UNL     1      -9.938   9.804  68.935  1.00  0.00    -0.176 A  
HETATM    9  N   UNL     1      -9.942   9.732  70.276  1.00  0.00    -0.261 NA 
HETATM   10  O   UNL     1     -10.302   8.433  70.587  1.00  0.00    -0.192 OA 
HETATM   11  C   UNL     1     -10.487   7.726  69.444  1.00  0.00    -0.220 A  
HETATM   12  C   UNL     1     -10.853   6.385  69.360  1.00  0.00    -0.381 A  
HETATM   13  C   UNL     1     -10.987   5.857  68.072  1.00  0.00    -0.252 A  
HETATM   14  C   UNL     1     -10.753   6.645  66.943  1.00  0.00    -0.401 A  
HETATM   15  C   UNL     1     -10.378   7.992  67.065  1.00  0.00    -0.414 A  
HETATM   16  C   UNL     1     -10.257   8.547  68.351  1.00  0.00    -0.236 A  
ENDBRANCH   7   8
ENDBRANCH   2   7
TORSDOF 2
ENDMDL
MODEL      108
REMARK 921   NORMALIZED FREE ENERGY PREDICTED BY IDOCK:   -3.82 KCAL/MOL
REMARK 922        TOTAL FREE ENERGY PREDICTED BY IDOCK:   -4.66 KCAL/MOL
REMARK 923 INTER-LIGAND FREE ENERGY PREDICTED BY IDOCK:   -4.42 KCAL/MOL
REMARK 924 INTRA-LIGAND FREE ENERGY PREDICTED BY IDOCK:   -0.23 KCAL/MOL
REMARK 927      BINDING AFFINITY PREDICTED BY RF-SCORE:    0.00 PKD
ROOT
HETATM    1  N   UNL     1      -7.829  17.222  66.122  1.00  0.00    -0.297 N  
HETATM    2  S   UNL     1      -8.405  16.606  67.581  1.00  0.00    -0.175 S  
HETATM    3  H1  UNL     1      -8.121  18.199  66.117  1.00  0.00     0.000 HD 
HETATM    4  H2  UNL     1      -7.302  16.727  65.403  1.00  0.00     0.000 HD 
HETATM    5  O   UNL     1      -7.990  15.223  67.589  1.00  0.00    -0.136 OA 
HETATM    6  O   UNL     1      -7.933  17.557  68.562  1.00  0.00    -0.255 OA 
ENDROOT
BRANCH   2   7
HETATM    7  C   UNL     1     -10.181  16.751  67.366  1.00  0.00    -0.288 C  
BRANCH   7   8
HETATM    8  C   UNL     1     -10.930  15.637  67.999  1.00  0.00    -0.318 A  
HETATM    9  N   UNL     1     -11.438  14.668  67.220  1.00  0.00    -0.360 NA 
HETATM   10  O   UNL     1     -12.098  13.801  68.071  1.00  0.00    -0.362 OA 
HETATM   11  C   UNL     1     -12.010  14.259  69.345  1.00  0.00    -0.337 A  
HETATM   12  C   UNL     1     -12.556  13.653  70.474  1.00  0.00    -0.337 A  
HETATM   13  C   UNL     1     -12.342  14.303  71.693  1.00  0.00    -0.392 A  
HETATM   14  C   UNL     1     -11.626  15.501  71.754  1.00  0.00    -0.515 A  
HETATM   15  C   UNL     1     -11.096  16.088  70.595  1.00  0.00    -0.352 A  
HETATM   16  C   UNL     1     -11.283  15.439  69.362  1.00  0.00    -0.300 A  
ENDBRANCH   7   8
ENDBRANCH   2   7
TORSDOF 2
ENDMDL
MODEL      109
REMARK 921   NORMALIZED FREE ENERGY PREDICTED BY IDOCK:   -3.80 KCAL/MOL
REMARK 922        TOTAL FREE ENERGY PREDICTED BY IDOCK:   -4.64 KCAL/MOL
REMARK 923 INTER-LIGAND FREE ENERGY PREDICTED BY IDOCK:   -4.24 KCAL/MOL
REMARK 924 INTRA-LIGAND FREE ENERGY PREDICTED BY IDOCK:   -0.40 KCAL/MOL
REMARK 927      BINDING AFFINITY PREDICTED BY RF-SCORE:    0.00 PKD
ROOT
HETATM    1  N   UNL     1      -9.477  11.784  68.966  1.00  0.00    -0.405 N  
HETATM    2  S   UNL     1     -10.538  10.734  68.184  1.00  0.00    -0.221 S  
HETATM    3  H1  UNL     1     -10.021  12.187  69.728  1.00  0.00     0.000 HD 
HETATM    4  H2  UNL     1      -8.503  11.973  68.730  1.00  0.00     0.000 HD 
HETATM    5  O   UNL     1      -9.767  10.162  67.106  1.00  0.00    -0.164 OA 
HETATM    6  O   UNL     1     -11.074   9.930  69.258  1.00  0.00    -0.229 OA 
ENDROOT
BRANCH   2   7
HETATM    7  C   UNL     1     -11.784  11.867  67.562  1.00  0.00    -0.265 C  
BRANCH   7   8
HETATM    8  C   UNL     1     -11.549  13.270  67.985  1.00  0.00    -0.336 A  
HETATM    9  N   UNL     1     -11.875  13.637  69.236  1.00  0.00    -0.325 NA 
HETATM   10  O   UNL     1     -11.578  14.984  69.328  1.00  0.00    -0.281 OA 
HETATM   11  C   UNL     1     -11.102  15.427  68.137  1.00  0.00    -0.309 A  
HETATM   12  C   UNL     1     -10.700  16.729  67.849  1.00  0.00    -0.347 A  
HETATM   13  C   UNL     1     -10.241  16.964  66.549  1.00  0.00    -0.320 A  
HETATM   14  C   UNL     1     -10.205  15.938  65.602  1.00  0.00    -0.406 A  
HETATM   15  C   UNL     1     -10.625  14.639  65.926  1.00  0.00    -0.319 A  
HETATM   16  C   UNL     1     -11.071  14.378  67.233  1.00  0.00    -0.318 A  
ENDBRANCH   7   8
ENDBRANCH   2   7
TORSDOF 2
ENDMDL
MODEL      110
REMARK 921   NORMALIZED FREE ENERGY PREDICTED BY IDOCK:   -3.78 KCAL/MOL
REMARK 922        TOTAL FREE ENERGY PREDICTED BY IDOCK:   -4.62 KCAL/MOL
REMARK 923 INTER-LIGAND FREE ENERGY PREDICTED BY IDOCK:   -4.53 KCAL/MOL
REMARK 924 INTRA-LIGAND FREE ENERGY PREDICTED BY IDOCK:   -0.08 KCAL/MOL
REMARK 927      BINDING AFFINITY PREDICTED BY RF-SCORE:    0.00 PKD
ROOT
HETATM    1  N   UNL     1     -12.590  13.369  71.181  1.00  0.00    -0.367 N  
HETATM    2  S   UNL     1     -12.086  14.976  71.229  1.00  0.00    -0.358 S  
HETATM    3  H1  UNL     1     -11.793  12.834  71.525  1.00  0.00     0.000 HD 
HETATM    4  H2  UNL     1     -13.495  13.010  70.875  1.00  0.00     0.000 HD 
HETATM    5  O   UNL     1     -13.215  15.733  70.742  1.00  0.00    -0.542 OA 
HETATM    6  O   UNL     1     -11.576  15.132  72.572  1.00  0.00    -0.421 OA 
ENDROOT
BRANCH   2   7
HETATM    7  C   UNL     1     -10.742  14.976  70.040  1.00  0.00    -0.192 C  
BRANCH   7   8
HETATM    8  C   UNL     1     -11.133  14.402  68.728  1.00  0.00    -0.257 A  
HETATM    9  N   UNL     1     -11.980  15.088  67.943  1.00  0.00    -0.218 NA 
HETATM   10  O   UNL     1     -12.182  14.304  66.823  1.00  0.00    -0.441 OA 
HETATM   11  C   UNL     1     -11.485  13.146  66.946  1.00  0.00    -0.341 A  
HETATM   12  C   UNL     1     -11.446  12.110  66.016  1.00  0.00    -0.427 A  
HETATM   13  C   UNL     1     -10.657  11.004  66.350  1.00  0.00    -0.308 A  
HETATM   14  C   UNL     1      -9.962  10.956  67.561  1.00  0.00    -0.201 A  
HETATM   15  C   UNL     1     -10.030  12.016  68.478  1.00  0.00    -0.188 A  
HETATM   16  C   UNL     1     -10.801  13.145  68.151  1.00  0.00    -0.271 A  
ENDBRANCH   7   8
ENDBRANCH   2   7
TORSDOF 2
ENDMDL
MODEL      111
REMARK 921   NORMALIZED FREE ENERGY PREDICTED BY IDOCK:   -3.76 KCAL/MOL
REMARK 922        TOTAL FREE ENERGY PREDICTED BY IDOCK:   -4.60 KCAL/MOL
REMARK 923 INTER-LIGAND FREE ENERGY PREDICTED BY IDOCK:   -4.58 KCAL/MOL
REMARK 924 INTRA-LIGAND FREE ENERGY PREDICTED BY IDOCK:   -0.02 KCAL/MOL
REMARK 927      BINDING AFFINITY PREDICTED BY RF-SCORE:    0.00 PKD
ROOT
HETATM    1  N   UNL     1      -8.735  10.644  69.337  1.00  0.00    -0.361 N  
HETATM    2  S   UNL     1      -9.134  10.779  67.705  1.00  0.00    -0.148 S  
HETATM    3  H1  UNL     1      -9.131   9.750  69.630  1.00  0.00     0.000 HD 
HETATM    4  H2  UNL     1      -8.212  11.309  69.906  1.00  0.00     0.000 HD 
HETATM    5  O   UNL     1      -8.574  12.044  67.290  1.00  0.00    -0.162 OA 
HETATM    6  O   UNL     1      -8.698   9.522  67.142  1.00  0.00    -0.130 OA 
ENDROOT
BRANCH   2   7
HETATM    7  C   UNL     1     -10.927  10.853  67.770  1.00  0.00    -0.283 C  
BRANCH   7   8
HETATM    8  C   UNL     1     -11.427  11.990  68.582  1.00  0.00    -0.297 A  
HETATM    9  N   UNL     1     -11.206  13.244  68.154  1.00  0.00    -0.256 NA 
HETATM   10  O   UNL     1     -11.749  14.076  69.116  1.00  0.00    -0.286 OA 
HETATM   11  C   UNL     1     -12.267  13.330  70.124  1.00  0.00    -0.306 A  
HETATM   12  C   UNL     1     -12.894  13.819  71.267  1.00  0.00    -0.434 A  
HETATM   13  C   UNL     1     -13.356  12.865  72.179  1.00  0.00    -0.615 A  
HETATM   14  C   UNL     1     -13.178  11.499  71.944  1.00  0.00    -0.479 A  
HETATM   15  C   UNL     1     -12.535  11.042  70.784  1.00  0.00    -0.491 A  
HETATM   16  C   UNL     1     -12.082  11.985  69.845  1.00  0.00    -0.334 A  
ENDBRANCH   7   8
ENDBRANCH   2   7
TORSDOF 2
ENDMDL
MODEL      112
REMARK 921   NORMALIZED FREE ENERGY PREDICTED BY IDOCK:   -3.76 KCAL/MOL
REMARK 922        TOTAL FREE ENERGY PREDICTED BY IDOCK:   -4.60 KCAL/MOL
REMARK 923 INTER-LIGAND FREE ENERGY PREDICTED BY IDOCK:   -4.15 KCAL/MOL
REMARK 924 INTRA-LIGAND FREE ENERGY PREDICTED BY IDOCK:   -0.45 KCAL/MOL
REMARK 927      BINDING AFFINITY PREDICTED BY RF-SCORE:    0.00 PKD
ROOT
HETATM    1  N   UNL     1     -10.982   8.218  67.222  1.00  0.00    -0.435 N  
HETATM    2  S   UNL     1      -9.618   9.171  66.957  1.00  0.00    -0.184 S  
HETATM    3  H1  UNL     1     -11.606   8.804  67.778  1.00  0.00     0.000 HD 
HETATM    4  H2  UNL     1     -11.147   7.266  66.898  1.00  0.00     0.000 HD 
HETATM    5  O   UNL     1      -8.734   8.343  66.170  1.00  0.00    -0.133 OA 
HETATM    6  O   UNL     1     -10.162  10.412  66.453  1.00  0.00    -0.225 OA 
ENDROOT
BRANCH   2   7
HETATM    7  C   UNL     1      -8.990   9.389  68.625  1.00  0.00    -0.132 C  
BRANCH   7   8
HETATM    8  C   UNL     1     -10.044   9.238  69.660  1.00  0.00    -0.197 A  
HETATM    9  N   UNL     1     -10.237   8.034  70.222  1.00  0.00    -0.197 NA 
HETATM   10  O   UNL     1     -11.286   8.192  71.110  1.00  0.00    -0.247 OA 
HETATM   11  C   UNL     1     -11.734   9.471  71.062  1.00  0.00    -0.343 A  
HETATM   12  C   UNL     1     -12.780  10.002  71.812  1.00  0.00    -0.526 A  
HETATM   13  C   UNL     1     -13.074  11.353  71.601  1.00  0.00    -0.498 A  
HETATM   14  C   UNL     1     -12.353  12.110  70.674  1.00  0.00    -0.385 A  
HETATM   15  C   UNL     1     -11.309  11.540  69.929  1.00  0.00    -0.267 A  
HETATM   16  C   UNL     1     -10.985  10.188  70.142  1.00  0.00    -0.376 A  
ENDBRANCH   7   8
ENDBRANCH   2   7
TORSDOF 2
ENDMDL
MODEL      113
REMARK 921   NORMALIZED FREE ENERGY PREDICTED BY IDOCK:   -3.74 KCAL/MOL
REMARK 922        TOTAL FREE ENERGY PREDICTED BY IDOCK:   -4.58 KCAL/MOL
REMARK 923 INTER-LIGAND FREE ENERGY PREDICTED BY IDOCK:   -4.34 KCAL/MOL
REMARK 924 INTRA-LIGAND FREE ENERGY PREDICTED BY IDOCK:   -0.24 KCAL/MOL
REMARK 927      BINDING AFFINITY PREDICTED BY RF-SCORE:    0.00 PKD
ROOT
HETATM    1  N   UNL     1     -12.994  12.181  63.540  1.00  0.00    -0.784 N  
HETATM    2  S   UNL     1     -12.300  13.218  64.673  1.00  0.00    -0.376 S  
HETATM    3  H1  UNL     1     -12.653  11.253  63.791  1.00  0.00     0.000 HD 
HETATM    4  H2  UNL     1     -13.618  12.427  62.773  1.00  0.00     0.000 HD 
HETATM    5  O   UNL     1     -12.784  14.532  64.318  1.00  0.00    -0.659 OA 
HETATM    6  O   UNL     1     -12.615  12.598  65.940  1.00  0.00    -0.526 OA 
ENDROOT
BRANCH   2   7
HETATM    7  C   UNL     1     -10.551  13.048  64.305  1.00  0.00    -0.412 C  
BRANCH   7   8
HETATM    8  C   UNL     1      -9.722  12.866  65.522  1.00  0.00    -0.062 A  
HETATM    9  N   UNL     1      -9.192  11.658  65.775  1.00  0.00    -0.208 NA 
HETATM   10  O   UNL     1      -8.509  11.783  66.971  1.00  0.00    -0.162 OA 
HETATM   11  C   UNL     1      -8.651  13.047  67.445  1.00  0.00    -0.199 A  
HETATM   12  C   UNL     1      -8.107  13.544  68.627  1.00  0.00    -0.055 A  
HETATM   13  C   UNL     1      -8.382  14.883  68.922  1.00  0.00    -0.178 A  
HETATM   14  C   UNL     1      -9.172  15.661  68.071  1.00  0.00    -0.184 A  
HETATM   15  C   UNL     1      -9.709  15.124  66.891  1.00  0.00    -0.248 A  
HETATM   16  C   UNL     1      -9.428  13.785  66.567  1.00  0.00    -0.282 A  
ENDBRANCH   7   8
ENDBRANCH   2   7
TORSDOF 2
ENDMDL
MODEL      114
REMARK 921   NORMALIZED FREE ENERGY PREDICTED BY IDOCK:   -3.74 KCAL/MOL
REMARK 922        TOTAL FREE ENERGY PREDICTED BY IDOCK:   -4.57 KCAL/MOL
REMARK 923 INTER-LIGAND FREE ENERGY PREDICTED BY IDOCK:   -4.66 KCAL/MOL
REMARK 924 INTRA-LIGAND FREE ENERGY PREDICTED BY IDOCK:    0.09 KCAL/MOL
REMARK 927      BINDING AFFINITY PREDICTED BY RF-SCORE:    0.00 PKD
ROOT
HETATM    1  N   UNL     1      -8.937   7.186  65.664  1.00  0.00    -0.372 N  
HETATM    2  S   UNL     1      -9.763   8.207  66.720  1.00  0.00    -0.255 S  
HETATM    3  H1  UNL     1      -8.051   7.657  65.483  1.00  0.00     0.000 HD 
HETATM    4  H2  UNL     1      -9.254   6.292  65.289  1.00  0.00     0.000 HD 
HETATM    5  O   UNL     1     -11.017   7.538  66.977  1.00  0.00    -0.306 OA 
HETATM    6  O   UNL     1      -8.800   8.466  67.766  1.00  0.00    -0.136 OA 
ENDROOT
BRANCH   2   7
HETATM    7  C   UNL     1     -10.002   9.669  65.706  1.00  0.00    -0.272 C  
BRANCH   7   8
HETATM    8  C   UNL     1     -10.702  10.761  66.428  1.00  0.00    -0.163 A  
HETATM    9  N   UNL     1     -11.351  10.477  67.569  1.00  0.00    -0.409 NA 
HETATM   10  O   UNL     1     -11.922  11.664  67.989  1.00  0.00    -0.577 OA 
HETATM   11  C   UNL     1     -11.641  12.645  67.094  1.00  0.00    -0.368 A  
HETATM   12  C   UNL     1     -12.051  13.974  67.180  1.00  0.00    -0.436 A  
HETATM   13  C   UNL     1     -11.644  14.817  66.141  1.00  0.00    -0.292 A  
HETATM   14  C   UNL     1     -10.879  14.332  65.077  1.00  0.00    -0.414 A  
HETATM   15  C   UNL     1     -10.490  12.985  65.021  1.00  0.00    -0.345 A  
HETATM   16  C   UNL     1     -10.872  12.126  66.066  1.00  0.00    -0.318 A  
ENDBRANCH   7   8
ENDBRANCH   2   7
TORSDOF 2
ENDMDL
MODEL      115
REMARK 921   NORMALIZED FREE ENERGY PREDICTED BY IDOCK:   -3.73 KCAL/MOL
REMARK 922        TOTAL FREE ENERGY PREDICTED BY IDOCK:   -4.57 KCAL/MOL
REMARK 923 INTER-LIGAND FREE ENERGY PREDICTED BY IDOCK:   -4.43 KCAL/MOL
REMARK 924 INTRA-LIGAND FREE ENERGY PREDICTED BY IDOCK:   -0.14 KCAL/MOL
REMARK 927      BINDING AFFINITY PREDICTED BY RF-SCORE:    0.00 PKD
ROOT
HETATM    1  N   UNL     1     -10.911  14.789  67.904  1.00  0.00    -0.269 N  
HETATM    2  S   UNL     1     -10.091  14.830  66.433  1.00  0.00    -0.293 S  
HETATM    3  H1  UNL     1     -10.995  15.765  68.185  1.00  0.00     0.000 HD 
HETATM    4  H2  UNL     1     -11.250  13.967  68.403  1.00  0.00     0.000 HD 
HETATM    5  O   UNL     1      -9.973  13.447  66.035  1.00  0.00    -0.291 OA 
HETATM    6  O   UNL     1     -10.836  15.795  65.655  1.00  0.00    -0.334 OA 
ENDROOT
BRANCH   2   7
HETATM    7  C   UNL     1      -8.500  15.505  66.917  1.00  0.00    -0.254 C  
BRANCH   7   8
HETATM    8  C   UNL     1      -8.389  16.962  66.657  1.00  0.00    -0.253 A  
HETATM    9  N   UNL     1      -7.438  17.403  65.817  1.00  0.00    -0.414 NA 
HETATM   10  O   UNL     1      -7.556  18.781  65.797  1.00  0.00    -0.468 OA 
HETATM   11  C   UNL     1      -8.550  19.165  66.636  1.00  0.00    -0.319 A  
HETATM   12  C   UNL     1      -8.958  20.474  66.880  1.00  0.00    -0.328 A  
HETATM   13  C   UNL     1     -10.009  20.639  67.787  1.00  0.00    -0.326 A  
HETATM   14  C   UNL     1     -10.598  19.538  68.414  1.00  0.00    -0.227 A  
HETATM   15  C   UNL     1     -10.157  18.233  68.150  1.00  0.00    -0.397 A  
HETATM   16  C   UNL     1      -9.115  18.044  67.226  1.00  0.00    -0.255 A  
ENDBRANCH   7   8
ENDBRANCH   2   7
TORSDOF 2
ENDMDL
MODEL      116
REMARK 921   NORMALIZED FREE ENERGY PREDICTED BY IDOCK:   -3.72 KCAL/MOL
REMARK 922        TOTAL FREE ENERGY PREDICTED BY IDOCK:   -4.56 KCAL/MOL
REMARK 923 INTER-LIGAND FREE ENERGY PREDICTED BY IDOCK:   -4.36 KCAL/MOL
REMARK 924 INTRA-LIGAND FREE ENERGY PREDICTED BY IDOCK:   -0.20 KCAL/MOL
REMARK 927      BINDING AFFINITY PREDICTED BY RF-SCORE:    0.00 PKD
ROOT
HETATM    1  N   UNL     1      -8.454   8.082  68.174  1.00  0.00    -0.123 N  
HETATM    2  S   UNL     1      -9.101   8.075  66.619  1.00  0.00    -0.172 S  
HETATM    3  H1  UNL     1      -8.860   8.903  68.623  1.00  0.00     0.000 HD 
HETATM    4  H2  UNL     1      -7.799   7.413  68.578  1.00  0.00     0.000 HD 
HETATM    5  O   UNL     1      -8.526   6.913  65.983  1.00  0.00    -0.128 OA 
HETATM    6  O   UNL     1     -10.523   8.206  66.841  1.00  0.00    -0.328 OA 
ENDROOT
BRANCH   2   7
HETATM    7  C   UNL     1      -8.428   9.591  65.932  1.00  0.00    -0.125 C  
BRANCH   7   8
HETATM    8  C   UNL     1      -9.341  10.236  64.957  1.00  0.00    -0.237 A  
HETATM    9  N   UNL     1      -9.178   9.986  63.647  1.00  0.00    -0.267 NA 
HETATM   10  O   UNL     1     -10.136  10.738  62.993  1.00  0.00    -0.304 OA 
HETATM   11  C   UNL     1     -10.850  11.453  63.898  1.00  0.00    -0.393 A  
HETATM   12  C   UNL     1     -11.896  12.326  63.612  1.00  0.00    -0.610 A  
HETATM   13  C   UNL     1     -12.493  12.961  64.706  1.00  0.00    -0.517 A  
HETATM   14  C   UNL     1     -12.042  12.728  66.008  1.00  0.00    -0.458 A  
HETATM   15  C   UNL     1     -10.980  11.846  66.258  1.00  0.00    -0.345 A  
HETATM   16  C   UNL     1     -10.380  11.183  65.174  1.00  0.00    -0.354 A  
ENDBRANCH   7   8
ENDBRANCH   2   7
TORSDOF 2
ENDMDL
MODEL      117
REMARK 921   NORMALIZED FREE ENERGY PREDICTED BY IDOCK:   -3.69 KCAL/MOL
REMARK 922        TOTAL FREE ENERGY PREDICTED BY IDOCK:   -4.52 KCAL/MOL
REMARK 923 INTER-LIGAND FREE ENERGY PREDICTED BY IDOCK:   -4.39 KCAL/MOL
REMARK 924 INTRA-LIGAND FREE ENERGY PREDICTED BY IDOCK:   -0.13 KCAL/MOL
REMARK 927      BINDING AFFINITY PREDICTED BY RF-SCORE:    0.00 PKD
ROOT
HETATM    1  N   UNL     1     -10.103   9.378  65.564  1.00  0.00    -0.350 N  
HETATM    2  S   UNL     1      -9.852  10.887  66.271  1.00  0.00    -0.225 S  
HETATM    3  H1  UNL     1     -10.513   9.580  64.653  1.00  0.00     0.000 HD 
HETATM    4  H2  UNL     1      -9.890   8.463  65.961  1.00  0.00     0.000 HD 
HETATM    5  O   UNL     1      -9.271  10.601  67.561  1.00  0.00    -0.142 OA 
HETATM    6  O   UNL     1      -9.141  11.626  65.252  1.00  0.00    -0.103 OA 
ENDROOT
BRANCH   2   7
HETATM    7  C   UNL     1     -11.532  11.499  66.436  1.00  0.00    -0.074 C  
BRANCH   7   8
HETATM    8  C   UNL     1     -11.801  12.680  65.579  1.00  0.00    -0.431 A  
HETATM    9  N   UNL     1     -12.588  12.536  64.500  1.00  0.00    -0.633 NA 
HETATM   10  O   UNL     1     -12.630  13.776  63.890  1.00  0.00    -0.701 OA 
HETATM   11  C   UNL     1     -11.855  14.650  64.581  1.00  0.00    -0.452 A  
HETATM   12  C   UNL     1     -11.649  15.990  64.265  1.00  0.00    -0.139 A  
HETATM   13  C   UNL     1     -10.807  16.708  65.120  1.00  0.00    -0.199 A  
HETATM   14  C   UNL     1     -10.204  16.093  66.220  1.00  0.00    -0.333 A  
HETATM   15  C   UNL     1     -10.428  14.737  66.504  1.00  0.00    -0.291 A  
HETATM   16  C   UNL     1     -11.288  14.003  65.668  1.00  0.00    -0.313 A  
ENDBRANCH   7   8
ENDBRANCH   2   7
TORSDOF 2
ENDMDL
MODEL      118
REMARK 921   NORMALIZED FREE ENERGY PREDICTED BY IDOCK:   -3.68 KCAL/MOL
REMARK 922        TOTAL FREE ENERGY PREDICTED BY IDOCK:   -4.51 KCAL/MOL
REMARK 923 INTER-LIGAND FREE ENERGY PREDICTED BY IDOCK:   -4.19 KCAL/MOL
REMARK 924 INTRA-LIGAND FREE ENERGY PREDICTED BY IDOCK:   -0.32 KCAL/MOL
REMARK 927      BINDING AFFINITY PREDICTED BY RF-SCORE:    0.00 PKD
ROOT
HETATM    1  N   UNL     1     -11.524   6.816  67.217  1.00  0.00    -0.729 N  
HETATM    2  S   UNL     1     -10.335   6.550  68.381  1.00  0.00    -0.211 S  
HETATM    3  H1  UNL     1     -11.024   6.824  66.328  1.00  0.00     0.000 HD 
HETATM    4  H2  UNL     1     -12.525   6.939  67.368  1.00  0.00     0.000 HD 
HETATM    5  O   UNL     1     -11.044   6.537  69.639  1.00  0.00    -0.309 OA 
HETATM    6  O   UNL     1      -9.625   5.393  67.885  1.00  0.00    -0.120 OA 
ENDROOT
BRANCH   2   7
HETATM    7  C   UNL     1      -9.326   8.026  68.219  1.00  0.00    -0.140 C  
BRANCH   7   8
HETATM    8  C   UNL     1     -10.123   9.237  67.904  1.00  0.00    -0.200 A  
HETATM    9  N   UNL     1     -11.030   9.670  68.795  1.00  0.00    -0.165 NA 
HETATM   10  O   UNL     1     -11.630  10.777  68.223  1.00  0.00    -0.401 OA 
HETATM   11  C   UNL     1     -11.107  10.991  66.989  1.00  0.00    -0.244 A  
HETATM   12  C   UNL     1     -11.465  12.012  66.113  1.00  0.00    -0.401 A  
HETATM   13  C   UNL     1     -10.792  12.043  64.887  1.00  0.00    -0.349 A  
HETATM   14  C   UNL     1      -9.825  11.085  64.572  1.00  0.00    -0.343 A  
HETATM   15  C   UNL     1      -9.494  10.066  65.477  1.00  0.00    -0.296 A  
HETATM   16  C   UNL     1     -10.144  10.029  66.723  1.00  0.00    -0.286 A  
ENDBRANCH   7   8
ENDBRANCH   2   7
TORSDOF 2
ENDMDL
MODEL      119
REMARK 921   NORMALIZED FREE ENERGY PREDICTED BY IDOCK:   -3.67 KCAL/MOL
REMARK 922        TOTAL FREE ENERGY PREDICTED BY IDOCK:   -4.49 KCAL/MOL
REMARK 923 INTER-LIGAND FREE ENERGY PREDICTED BY IDOCK:   -4.27 KCAL/MOL
REMARK 924 INTRA-LIGAND FREE ENERGY PREDICTED BY IDOCK:   -0.22 KCAL/MOL
REMARK 927      BINDING AFFINITY PREDICTED BY RF-SCORE:    0.00 PKD
ROOT
HETATM    1  N   UNL     1      -8.816   7.752  65.263  1.00  0.00    -0.378 N  
HETATM    2  S   UNL     1      -8.806   9.427  65.448  1.00  0.00    -0.196 S  
HETATM    3  H1  UNL     1      -9.590   7.563  64.626  1.00  0.00     0.000 HD 
HETATM    4  H2  UNL     1      -8.187   7.076  65.694  1.00  0.00     0.000 HD 
HETATM    5  O   UNL     1      -7.711   9.694  66.349  1.00  0.00    -0.100 OA 
HETATM    6  O   UNL     1      -8.823   9.919  64.089  1.00  0.00    -0.189 OA 
ENDROOT
BRANCH   2   7
HETATM    7  C   UNL     1     -10.389   9.719  66.243  1.00  0.00    -0.165 C  
BRANCH   7   8
HETATM    8  C   UNL     1     -10.710  11.162  66.373  1.00  0.00    -0.247 A  
HETATM    9  N   UNL     1     -10.542  11.763  67.563  1.00  0.00    -0.208 NA 
HETATM   10  O   UNL     1     -10.946  13.074  67.389  1.00  0.00    -0.250 OA 
HETATM   11  C   UNL     1     -11.376  13.252  66.114  1.00  0.00    -0.309 A  
HETATM   12  C   UNL     1     -11.860  14.440  65.571  1.00  0.00    -0.357 A  
HETATM   13  C   UNL     1     -12.250  14.395  64.229  1.00  0.00    -0.450 A  
HETATM   14  C   UNL     1     -12.163  13.211  63.493  1.00  0.00    -0.552 A  
HETATM   15  C   UNL     1     -11.677  12.031  64.075  1.00  0.00    -0.498 A  
HETATM   16  C   UNL     1     -11.260  12.060  65.417  1.00  0.00    -0.374 A  
ENDBRANCH   7   8
ENDBRANCH   2   7
TORSDOF 2
ENDMDL
MODEL      120
REMARK 921   NORMALIZED FREE ENERGY PREDICTED BY IDOCK:   -3.67 KCAL/MOL
REMARK 922        TOTAL FREE ENERGY PREDICTED BY IDOCK:   -4.49 KCAL/MOL
REMARK 923 INTER-LIGAND FREE ENERGY PREDICTED BY IDOCK:   -4.39 KCAL/MOL
REMARK 924 INTRA-LIGAND FREE ENERGY PREDICTED BY IDOCK:   -0.10 KCAL/MOL
REMARK 927      BINDING AFFINITY PREDICTED BY RF-SCORE:    0.00 PKD
ROOT
HETATM    1  N   UNL     1      -8.563  11.156  64.883  1.00  0.00    -0.377 N  
HETATM    2  S   UNL     1      -9.756  11.758  65.910  1.00  0.00    -0.239 S  
HETATM    3  H1  UNL     1      -9.060  10.546  64.233  1.00  0.00     0.000 HD 
HETATM    4  H2  UNL     1      -7.564  11.358  64.905  1.00  0.00     0.000 HD 
HETATM    5  O   UNL     1      -9.053  12.621  66.828  1.00  0.00    -0.216 OA 
HETATM    6  O   UNL     1     -10.765  12.256  65.003  1.00  0.00    -0.279 OA 
ENDROOT
BRANCH   2   7
HETATM    7  C   UNL     1     -10.325  10.264  66.727  1.00  0.00    -0.227 C  
BRANCH   7   8
HETATM    8  C   UNL     1     -11.160  10.544  67.922  1.00  0.00    -0.304 A  
HETATM    9  N   UNL     1     -12.058  11.542  67.870  1.00  0.00    -0.605 NA 
HETATM   10  O   UNL     1     -12.653  11.585  69.117  1.00  0.00    -0.185 OA 
HETATM   11  C   UNL     1     -12.098  10.641  69.919  1.00  0.00    -0.299 A  
HETATM   12  C   UNL     1     -12.439  10.389  71.245  1.00  0.00    -0.521 A  
HETATM   13  C   UNL     1     -11.734   9.364  71.884  1.00  0.00    -0.376 A  
HETATM   14  C   UNL     1     -10.738   8.649  71.214  1.00  0.00    -0.322 A  
HETATM   15  C   UNL     1     -10.416   8.935  69.879  1.00  0.00    -0.223 A  
HETATM   16  C   UNL     1     -11.127   9.949  69.213  1.00  0.00    -0.220 A  
ENDBRANCH   7   8
ENDBRANCH   2   7
TORSDOF 2
ENDMDL
MODEL      121
REMARK 921   NORMALIZED FREE ENERGY PREDICTED BY IDOCK:   -3.66 KCAL/MOL
REMARK 922        TOTAL FREE ENERGY PREDICTED BY IDOCK:   -4.48 KCAL/MOL
REMARK 923 INTER-LIGAND FREE ENERGY PREDICTED BY IDOCK:   -4.34 KCAL/MOL
REMARK 924 INTRA-LIGAND FREE ENERGY PREDICTED BY IDOCK:   -0.14 KCAL/MOL
REMARK 927      BINDING AFFINITY PREDICTED BY RF-SCORE:    0.00 PKD
ROOT
HETATM    1  N   UNL     1      -9.027  18.782  66.693  1.00  0.00    -0.306 N  
HETATM    2  S   UNL     1      -8.958  17.183  67.219  1.00  0.00    -0.224 S  
HETATM    3  H1  UNL     1      -9.658  19.246  67.347  1.00  0.00     0.000 HD 
HETATM    4  H2  UNL     1      -8.543  19.196  65.897  1.00  0.00     0.000 HD 
HETATM    5  O   UNL     1      -8.065  16.526  66.294  1.00  0.00    -0.307 OA 
HETATM    6  O   UNL     1      -8.658  17.300  68.628  1.00  0.00    -0.269 OA 
ENDROOT
BRANCH   2   7
HETATM    7  C   UNL     1     -10.654  16.643  66.979  1.00  0.00    -0.247 C  
BRANCH   7   8
HETATM    8  C   UNL     1     -10.747  15.310  66.333  1.00  0.00    -0.318 A  
HETATM    9  N   UNL     1     -10.763  15.235  64.992  1.00  0.00    -0.430 NA 
HETATM   10  O   UNL     1     -10.887  13.893  64.686  1.00  0.00    -0.390 OA 
HETATM   11  C   UNL     1     -10.971  13.171  65.832  1.00  0.00    -0.271 A  
HETATM   12  C   UNL     1     -11.107  11.788  65.921  1.00  0.00    -0.355 A  
HETATM   13  C   UNL     1     -11.175  11.252  67.211  1.00  0.00    -0.364 A  
HETATM   14  C   UNL     1     -11.119  12.077  68.337  1.00  0.00    -0.290 A  
HETATM   15  C   UNL     1     -10.990  13.468  68.209  1.00  0.00    -0.280 A  
HETATM   16  C   UNL     1     -10.899  14.024  66.921  1.00  0.00    -0.290 A  
ENDBRANCH   7   8
ENDBRANCH   2   7
TORSDOF 2
ENDMDL
MODEL      122
REMARK 921   NORMALIZED FREE ENERGY PREDICTED BY IDOCK:   -3.66 KCAL/MOL
REMARK 922        TOTAL FREE ENERGY PREDICTED BY IDOCK:   -4.48 KCAL/MOL
REMARK 923 INTER-LIGAND FREE ENERGY PREDICTED BY IDOCK:   -4.28 KCAL/MOL
REMARK 924 INTRA-LIGAND FREE ENERGY PREDICTED BY IDOCK:   -0.20 KCAL/MOL
REMARK 927      BINDING AFFINITY PREDICTED BY RF-SCORE:    0.00 PKD
ROOT
HETATM    1  N   UNL     1      -8.879  10.626  69.406  1.00  0.00    -0.366 N  
HETATM    2  S   UNL     1      -8.314  10.334  67.846  1.00  0.00    -0.114 S  
HETATM    3  H1  UNL     1      -9.109   9.705  69.779  1.00  0.00     0.000 HD 
HETATM    4  H2  UNL     1      -8.969  11.527  69.876  1.00  0.00     0.000 HD 
HETATM    5  O   UNL     1      -7.987  11.638  67.320  1.00  0.00    -0.141 OA 
HETATM    6  O   UNL     1      -7.315   9.306  68.033  1.00  0.00    -0.079 OA 
ENDROOT
BRANCH   2   7
HETATM    7  C   UNL     1      -9.772   9.657  67.047  1.00  0.00    -0.181 C  
BRANCH   7   8
HETATM    8  C   UNL     1     -10.282  10.521  65.953  1.00  0.00    -0.245 A  
HETATM    9  N   UNL     1      -9.958  10.223  64.684  1.00  0.00    -0.336 NA 
HETATM   10  O   UNL     1     -10.539  11.204  63.902  1.00  0.00    -0.354 OA 
HETATM   11  C   UNL     1     -11.183  12.096  64.695  1.00  0.00    -0.323 A  
HETATM   12  C   UNL     1     -11.883  13.221  64.265  1.00  0.00    -0.469 A  
HETATM   13  C   UNL     1     -12.473  14.005  65.261  1.00  0.00    -0.495 A  
HETATM   14  C   UNL     1     -12.347  13.668  66.611  1.00  0.00    -0.381 A  
HETATM   15  C   UNL     1     -11.629  12.531  67.009  1.00  0.00    -0.437 A  
HETATM   16  C   UNL     1     -11.045  11.718  66.022  1.00  0.00    -0.363 A  
ENDBRANCH   7   8
ENDBRANCH   2   7
TORSDOF 2
ENDMDL
MODEL      123
REMARK 921   NORMALIZED FREE ENERGY PREDICTED BY IDOCK:   -3.63 KCAL/MOL
REMARK 922        TOTAL FREE ENERGY PREDICTED BY IDOCK:   -4.46 KCAL/MOL
REMARK 923 INTER-LIGAND FREE ENERGY PREDICTED BY IDOCK:   -4.25 KCAL/MOL
REMARK 924 INTRA-LIGAND FREE ENERGY PREDICTED BY IDOCK:   -0.21 KCAL/MOL
REMARK 927      BINDING AFFINITY PREDICTED BY RF-SCORE:    0.00 PKD
ROOT
HETATM    1  N   UNL     1     -10.081   9.379  65.783  1.00  0.00    -0.353 N  
HETATM    2  S   UNL     1      -9.798  10.935  66.366  1.00  0.00    -0.215 S  
HETATM    3  H1  UNL     1     -10.206   9.495  64.777  1.00  0.00     0.000 HD 
HETATM    4  H2  UNL     1     -10.117   8.512  66.318  1.00  0.00     0.000 HD 
HETATM    5  O   UNL     1      -9.620  10.771  67.789  1.00  0.00    -0.159 OA 
HETATM    6  O   UNL     1      -8.745  11.433  65.510  1.00  0.00    -0.109 OA 
ENDROOT
BRANCH   2   7
HETATM    7  C   UNL     1     -11.352  11.755  65.995  1.00  0.00    -0.273 C  
BRANCH   7   8
HETATM    8  C   UNL     1     -11.406  13.145  66.510  1.00  0.00    -0.315 A  
HETATM    9  N   UNL     1     -11.170  14.163  65.665  1.00  0.00    -0.303 NA 
HETATM   10  O   UNL     1     -11.256  15.316  66.423  1.00  0.00    -0.315 OA 
HETATM   11  C   UNL     1     -11.516  14.993  67.715  1.00  0.00    -0.334 A  
HETATM   12  C   UNL     1     -11.669  15.890  68.769  1.00  0.00    -0.355 A  
HETATM   13  C   UNL     1     -11.933  15.334  70.025  1.00  0.00    -0.375 A  
HETATM   14  C   UNL     1     -12.025  13.950  70.195  1.00  0.00    -0.402 A  
HETATM   15  C   UNL     1     -11.859  13.075  69.110  1.00  0.00    -0.360 A  
HETATM   16  C   UNL     1     -11.612  13.616  67.836  1.00  0.00    -0.376 A  
ENDBRANCH   7   8
ENDBRANCH   2   7
TORSDOF 2
ENDMDL
MODEL      124
REMARK 921   NORMALIZED FREE ENERGY PREDICTED BY IDOCK:   -3.63 KCAL/MOL
REMARK 922        TOTAL FREE ENERGY PREDICTED BY IDOCK:   -4.45 KCAL/MOL
REMARK 923 INTER-LIGAND FREE ENERGY PREDICTED BY IDOCK:   -4.04 KCAL/MOL
REMARK 924 INTRA-LIGAND FREE ENERGY PREDICTED BY IDOCK:   -0.41 KCAL/MOL
REMARK 927      BINDING AFFINITY PREDICTED BY RF-SCORE:    0.00 PKD
ROOT
HETATM    1  N   UNL     1     -12.003  11.591  63.347  1.00  0.00    -0.799 N  
HETATM    2  S   UNL     1     -11.812  12.764  64.541  1.00  0.00    -0.407 S  
HETATM    3  H1  UNL     1     -12.798  11.030  63.655  1.00  0.00     0.000 HD 
HETATM    4  H2  UNL     1     -11.446  11.468  62.501  1.00  0.00     0.000 HD 
HETATM    5  O   UNL     1     -10.688  13.558  64.105  1.00  0.00    -0.372 OA 
HETATM    6  O   UNL     1     -13.138  13.321  64.686  1.00  0.00    -0.665 OA 
ENDROOT
BRANCH   2   7
HETATM    7  C   UNL     1     -11.388  11.767  65.972  1.00  0.00    -0.273 C  
BRANCH   7   8
HETATM    8  C   UNL     1     -10.058  11.119  65.849  1.00  0.00    -0.247 A  
HETATM    9  N   UNL     1      -9.941  10.010  65.100  1.00  0.00    -0.325 NA 
HETATM   10  O   UNL     1      -8.617   9.623  65.198  1.00  0.00    -0.138 OA 
HETATM   11  C   UNL     1      -7.953  10.475  66.018  1.00  0.00    -0.149 A  
HETATM   12  C   UNL     1      -6.604  10.402  66.357  1.00  0.00    -0.099 A  
HETATM   13  C   UNL     1      -6.126  11.391  67.223  1.00  0.00    -0.085 A  
HETATM   14  C   UNL     1      -6.975  12.384  67.719  1.00  0.00    -0.118 A  
HETATM   15  C   UNL     1      -8.331  12.423  67.361  1.00  0.00    -0.180 A  
HETATM   16  C   UNL     1      -8.826  11.449  66.476  1.00  0.00    -0.187 A  
ENDBRANCH   7   8
ENDBRANCH   2   7
TORSDOF 2
ENDMDL
MODEL      125
REMARK 921   NORMALIZED FREE ENERGY PREDICTED BY IDOCK:   -3.60 KCAL/MOL
REMARK 922        TOTAL FREE ENERGY PREDICTED BY IDOCK:   -4.42 KCAL/MOL
REMARK 923 INTER-LIGAND FREE ENERGY PREDICTED BY IDOCK:   -3.99 KCAL/MOL
REMARK 924 INTRA-LIGAND FREE ENERGY PREDICTED BY IDOCK:   -0.42 KCAL/MOL
REMARK 927      BINDING AFFINITY PREDICTED BY RF-SCORE:    0.00 PKD
ROOT
HETATM    1  N   UNL     1     -10.412  10.981  69.948  1.00  0.00    -0.421 N  
HETATM    2  S   UNL     1     -11.515  12.087  69.314  1.00  0.00    -0.305 S  
HETATM    3  H1  UNL     1      -9.730  11.550  70.449  1.00  0.00     0.000 HD 
HETATM    4  H2  UNL     1     -10.425   9.966  69.852  1.00  0.00     0.000 HD 
HETATM    5  O   UNL     1     -12.481  11.282  68.605  1.00  0.00    -0.442 OA 
HETATM    6  O   UNL     1     -11.876  12.898  70.454  1.00  0.00    -0.284 OA 
ENDROOT
BRANCH   2   7
HETATM    7  C   UNL     1     -10.487  13.020  68.176  1.00  0.00    -0.245 C  
BRANCH   7   8
HETATM    8  C   UNL     1      -9.876  12.171  67.123  1.00  0.00    -0.197 A  
HETATM    9  N   UNL     1      -8.681  11.603  67.356  1.00  0.00    -0.150 NA 
HETATM   10  O   UNL     1      -8.358  10.910  66.204  1.00  0.00    -0.162 OA 
HETATM   11  C   UNL     1      -9.336  11.082  65.280  1.00  0.00    -0.216 A  
HETATM   12  C   UNL     1      -9.357  10.537  63.998  1.00  0.00    -0.308 A  
HETATM   13  C   UNL     1     -10.470  10.847  63.210  1.00  0.00    -0.145 A  
HETATM   14  C   UNL     1     -11.491  11.668  63.696  1.00  0.00    -0.458 A  
HETATM   15  C   UNL     1     -11.432  12.205  64.991  1.00  0.00    -0.377 A  
HETATM   16  C   UNL     1     -10.332  11.890  65.806  1.00  0.00    -0.285 A  
ENDBRANCH   7   8
ENDBRANCH   2   7
TORSDOF 2
ENDMDL
MODEL      126
REMARK 921   NORMALIZED FREE ENERGY PREDICTED BY IDOCK:   -3.59 KCAL/MOL
REMARK 922        TOTAL FREE ENERGY PREDICTED BY IDOCK:   -4.41 KCAL/MOL
REMARK 923 INTER-LIGAND FREE ENERGY PREDICTED BY IDOCK:   -4.13 KCAL/MOL
REMARK 924 INTRA-LIGAND FREE ENERGY PREDICTED BY IDOCK:   -0.28 KCAL/MOL
REMARK 927      BINDING AFFINITY PREDICTED BY RF-SCORE:    0.00 PKD
ROOT
HETATM    1  N   UNL     1      -9.760  13.289  65.876  1.00  0.00    -0.437 N  
HETATM    2  S   UNL     1     -11.181  13.386  66.778  1.00  0.00    -0.320 S  
HETATM    3  H1  UNL     1      -9.524  12.297  65.865  1.00  0.00     0.000 HD 
HETATM    4  H2  UNL     1      -9.250  14.055  65.438  1.00  0.00     0.000 HD 
HETATM    5  O   UNL     1     -11.516  14.790  66.793  1.00  0.00    -0.351 OA 
HETATM    6  O   UNL     1     -12.039  12.396  66.166  1.00  0.00    -0.611 OA 
ENDROOT
BRANCH   2   7
HETATM    7  C   UNL     1     -10.630  12.830  68.393  1.00  0.00    -0.248 C  
BRANCH   7   8
HETATM    8  C   UNL     1     -10.279  11.389  68.418  1.00  0.00    -0.198 A  
HETATM    9  N   UNL     1      -9.462  10.901  67.470  1.00  0.00    -0.155 NA 
HETATM   10  O   UNL     1      -9.344   9.547  67.727  1.00  0.00    -0.128 OA 
HETATM   11  C   UNL     1     -10.104   9.221  68.803  1.00  0.00    -0.195 A  
HETATM   12  C   UNL     1     -10.238   7.950  69.356  1.00  0.00    -0.206 A  
HETATM   13  C   UNL     1     -11.078   7.843  70.469  1.00  0.00    -0.260 A  
HETATM   14  C   UNL     1     -11.745   8.959  70.978  1.00  0.00    -0.340 A  
HETATM   15  C   UNL     1     -11.591  10.224  70.391  1.00  0.00    -0.411 A  
HETATM   16  C   UNL     1     -10.736  10.357  69.283  1.00  0.00    -0.270 A  
ENDBRANCH   7   8
ENDBRANCH   2   7
TORSDOF 2
ENDMDL
MODEL      127
REMARK 921   NORMALIZED FREE ENERGY PREDICTED BY IDOCK:   -3.57 KCAL/MOL
REMARK 922        TOTAL FREE ENERGY PREDICTED BY IDOCK:   -4.38 KCAL/MOL
REMARK 923 INTER-LIGAND FREE ENERGY PREDICTED BY IDOCK:   -4.12 KCAL/MOL
REMARK 924 INTRA-LIGAND FREE ENERGY PREDICTED BY IDOCK:   -0.26 KCAL/MOL
REMARK 927      BINDING AFFINITY PREDICTED BY RF-SCORE:    0.00 PKD
ROOT
HETATM    1  N   UNL     1      -7.618  10.481  64.964  1.00  0.00    -0.312 N  
HETATM    2  S   UNL     1      -8.204  10.445  66.543  1.00  0.00    -0.135 S  
HETATM    3  H1  UNL     1      -8.025  11.320  64.552  1.00  0.00     0.000 HD 
HETATM    4  H2  UNL     1      -6.991   9.811  64.518  1.00  0.00     0.000 HD 
HETATM    5  O   UNL     1      -7.626   9.258  67.126  1.00  0.00    -0.091 OA 
HETATM    6  O   UNL     1      -7.913  11.769  67.044  1.00  0.00    -0.155 OA 
ENDROOT
BRANCH   2   7
HETATM    7  C   UNL     1      -9.968  10.246  66.276  1.00  0.00    -0.235 C  
BRANCH   7   8
HETATM    8  C   UNL     1     -10.784  10.773  67.398  1.00  0.00    -0.268 A  
HETATM    9  N   UNL     1     -11.413  11.950  67.249  1.00  0.00    -0.415 NA 
HETATM   10  O   UNL     1     -12.056  12.194  68.449  1.00  0.00    -0.369 OA 
HETATM   11  C   UNL     1     -11.793  11.186  69.319  1.00  0.00    -0.352 A  
HETATM   12  C   UNL     1     -12.265  11.086  70.625  1.00  0.00    -0.481 A  
HETATM   13  C   UNL     1     -11.866   9.956  71.345  1.00  0.00    -0.476 A  
HETATM   14  C   UNL     1     -11.030   8.995  70.772  1.00  0.00    -0.315 A  
HETATM   15  C   UNL     1     -10.568   9.131  69.454  1.00  0.00    -0.232 A  
HETATM   16  C   UNL     1     -10.973  10.250  68.707  1.00  0.00    -0.285 A  
ENDBRANCH   7   8
ENDBRANCH   2   7
TORSDOF 2
ENDMDL
MODEL      128
REMARK 921   NORMALIZED FREE ENERGY PREDICTED BY IDOCK:   -3.57 KCAL/MOL
REMARK 922        TOTAL FREE ENERGY PREDICTED BY IDOCK:   -4.38 KCAL/MOL
REMARK 923 INTER-LIGAND FREE ENERGY PREDICTED BY IDOCK:   -4.20 KCAL/MOL
REMARK 924 INTRA-LIGAND FREE ENERGY PREDICTED BY IDOCK:   -0.18 KCAL/MOL
REMARK 927      BINDING AFFINITY PREDICTED BY RF-SCORE:    0.00 PKD
ROOT
HETATM    1  N   UNL     1     -11.362  12.374  69.664  1.00  0.00    -0.476 N  
HETATM    2  S   UNL     1     -11.215  10.736  69.296  1.00  0.00    -0.295 S  
HETATM    3  H1  UNL     1     -11.013  12.461  70.618  1.00  0.00     0.000 HD 
HETATM    4  H2  UNL     1     -11.721  13.116  69.064  1.00  0.00     0.000 HD 
HETATM    5  O   UNL     1     -11.708  10.614  67.944  1.00  0.00    -0.506 OA 
HETATM    6  O   UNL     1      -9.846  10.430  69.647  1.00  0.00    -0.213 OA 
ENDROOT
BRANCH   2   7
HETATM    7  C   UNL     1     -12.349   9.992  70.471  1.00  0.00    -0.200 C  
BRANCH   7   8
HETATM    8  C   UNL     1     -11.778   8.799  71.145  1.00  0.00    -0.291 A  
HETATM    9  N   UNL     1     -11.608   8.822  72.478  1.00  0.00    -0.251 NA 
HETATM   10  O   UNL     1     -11.039   7.606  72.811  1.00  0.00    -0.326 OA 
HETATM   11  C   UNL     1     -10.845   6.872  71.687  1.00  0.00    -0.226 A  
HETATM   12  C   UNL     1     -10.291   5.595  71.627  1.00  0.00    -0.270 A  
HETATM   13  C   UNL     1     -10.184   5.023  70.356  1.00  0.00    -0.324 A  
HETATM   14  C   UNL     1     -10.606   5.714  69.217  1.00  0.00    -0.359 A  
HETATM   15  C   UNL     1     -11.154   7.002  69.314  1.00  0.00    -0.166 A  
HETATM   16  C   UNL     1     -11.288   7.587  70.585  1.00  0.00    -0.301 A  
ENDBRANCH   7   8
ENDBRANCH   2   7
TORSDOF 2
ENDMDL
MODEL      129
REMARK 921   NORMALIZED FREE ENERGY PREDICTED BY IDOCK:   -3.52 KCAL/MOL
REMARK 922        TOTAL FREE ENERGY PREDICTED BY IDOCK:   -4.32 KCAL/MOL
REMARK 923 INTER-LIGAND FREE ENERGY PREDICTED BY IDOCK:   -4.15 KCAL/MOL
REMARK 924 INTRA-LIGAND FREE ENERGY PREDICTED BY IDOCK:   -0.17 KCAL/MOL
REMARK 927      BINDING AFFINITY PREDICTED BY RF-SCORE:    0.00 PKD
ROOT
HETATM    1  N   UNL     1     -10.474  15.362  70.343  1.00  0.00    -0.462 N  
HETATM    2  S   UNL     1     -11.982  14.764  69.887  1.00  0.00    -0.345 S  
HETATM    3  H1  UNL     1      -9.811  14.899  69.722  1.00  0.00     0.000 HD 
HETATM    4  H2  UNL     1     -10.270  16.038  71.078  1.00  0.00     0.000 HD 
HETATM    5  O   UNL     1     -12.922  15.419  70.766  1.00  0.00    -0.448 OA 
HETATM    6  O   UNL     1     -12.006  14.955  68.455  1.00  0.00    -0.309 OA 
ENDROOT
BRANCH   2   7
HETATM    7  C   UNL     1     -11.824  13.021  70.288  1.00  0.00    -0.217 C  
BRANCH   7   8
HETATM    8  C   UNL     1     -11.422  12.196  69.122  1.00  0.00    -0.296 A  
HETATM    9  N   UNL     1     -12.262  11.250  68.672  1.00  0.00    -0.542 NA 
HETATM   10  O   UNL     1     -11.615  10.635  67.617  1.00  0.00    -0.492 OA 
HETATM   11  C   UNL     1     -10.388  11.189  67.451  1.00  0.00    -0.196 A  
HETATM   12  C   UNL     1      -9.449  10.826  66.488  1.00  0.00    -0.197 A  
HETATM   13  C   UNL     1      -8.243  11.535  66.499  1.00  0.00    -0.129 A  
HETATM   14  C   UNL     1      -8.007  12.541  67.440  1.00  0.00    -0.180 A  
HETATM   15  C   UNL     1      -8.975  12.875  68.400  1.00  0.00    -0.124 A  
HETATM   16  C   UNL     1     -10.201  12.188  68.393  1.00  0.00    -0.212 A  
ENDBRANCH   7   8
ENDBRANCH   2   7
TORSDOF 2
ENDMDL
MODEL      130
REMARK 921   NORMALIZED FREE ENERGY PREDICTED BY IDOCK:   -3.46 KCAL/MOL
REMARK 922        TOTAL FREE ENERGY PREDICTED BY IDOCK:   -4.27 KCAL/MOL
REMARK 923 INTER-LIGAND FREE ENERGY PREDICTED BY IDOCK:   -3.89 KCAL/MOL
REMARK 924 INTRA-LIGAND FREE ENERGY PREDICTED BY IDOCK:   -0.37 KCAL/MOL
REMARK 927      BINDING AFFINITY PREDICTED BY RF-SCORE:    0.00 PKD
ROOT
HETATM    1  N   UNL     1      -6.527   9.016  70.417  1.00  0.00    -0.042 N  
HETATM    2  S   UNL     1      -7.216   8.022  71.592  1.00  0.00    -0.081 S  
HETATM    3  H1  UNL     1      -7.159   9.814  70.346  1.00  0.00     0.000 HD 
HETATM    4  H2  UNL     1      -5.667   8.855  69.894  1.00  0.00     0.000 HD 
HETATM    5  O   UNL     1      -6.321   6.893  71.693  1.00  0.00    -0.041 OA 
HETATM    6  O   UNL     1      -7.452   8.919  72.700  1.00  0.00    -0.354 OA 
ENDROOT
BRANCH   2   7
HETATM    7  C   UNL     1      -8.766   7.556  70.816  1.00  0.00    -0.140 C  
BRANCH   7   8
HETATM    8  C   UNL     1      -9.677   8.710  70.612  1.00  0.00    -0.184 A  
HETATM    9  N   UNL     1      -9.294   9.706  69.797  1.00  0.00    -0.204 NA 
HETATM   10  O   UNL     1     -10.315  10.639  69.829  1.00  0.00    -0.205 OA 
HETATM   11  C   UNL     1     -11.289  10.218  70.674  1.00  0.00    -0.347 A  
HETATM   12  C   UNL     1     -12.471  10.896  70.964  1.00  0.00    -0.514 A  
HETATM   13  C   UNL     1     -13.337  10.274  71.869  1.00  0.00    -0.487 A  
HETATM   14  C   UNL     1     -13.012   9.046  72.450  1.00  0.00    -0.471 A  
HETATM   15  C   UNL     1     -11.808   8.395  72.139  1.00  0.00    -0.441 A  
HETATM   16  C   UNL     1     -10.933   8.993  71.216  1.00  0.00    -0.384 A  
ENDBRANCH   7   8
ENDBRANCH   2   7
TORSDOF 2
ENDMDL
MODEL      131
REMARK 921   NORMALIZED FREE ENERGY PREDICTED BY IDOCK:   -3.46 KCAL/MOL
REMARK 922        TOTAL FREE ENERGY PREDICTED BY IDOCK:   -4.26 KCAL/MOL
REMARK 923 INTER-LIGAND FREE ENERGY PREDICTED BY IDOCK:   -4.02 KCAL/MOL
REMARK 924 INTRA-LIGAND FREE ENERGY PREDICTED BY IDOCK:   -0.24 KCAL/MOL
REMARK 927      BINDING AFFINITY PREDICTED BY RF-SCORE:    0.00 PKD
ROOT
HETATM    1  N   UNL     1      -8.540   9.308  68.455  1.00  0.00    -0.127 N  
HETATM    2  S   UNL     1      -9.524  10.215  67.431  1.00  0.00    -0.154 S  
HETATM    3  H1  UNL     1      -9.071   9.224  69.322  1.00  0.00     0.000 HD 
HETATM    4  H2  UNL     1      -7.616   8.926  68.252  1.00  0.00     0.000 HD 
HETATM    5  O   UNL     1      -8.773  10.333  66.204  1.00  0.00    -0.145 OA 
HETATM    6  O   UNL     1     -10.797   9.534  67.492  1.00  0.00    -0.280 OA 
ENDROOT
BRANCH   2   7
HETATM    7  C   UNL     1      -9.607  11.786  68.297  1.00  0.00    -0.199 C  
BRANCH   7   8
HETATM    8  C   UNL     1      -9.721  12.944  67.377  1.00  0.00    -0.201 A  
HETATM    9  N   UNL     1      -8.815  13.933  67.458  1.00  0.00    -0.185 NA 
HETATM   10  O   UNL     1      -9.191  14.873  66.516  1.00  0.00    -0.258 OA 
HETATM   11  C   UNL     1     -10.325  14.465  65.893  1.00  0.00    -0.314 A  
HETATM   12  C   UNL     1     -11.000  15.152  64.888  1.00  0.00    -0.434 A  
HETATM   13  C   UNL     1     -12.155  14.542  64.386  1.00  0.00    -0.492 A  
HETATM   14  C   UNL     1     -12.596  13.315  64.887  1.00  0.00    -0.444 A  
HETATM   15  C   UNL     1     -11.894  12.654  65.905  1.00  0.00    -0.499 A  
HETATM   16  C   UNL     1     -10.720  13.241  66.409  1.00  0.00    -0.291 A  
ENDBRANCH   7   8
ENDBRANCH   2   7
TORSDOF 2
ENDMDL
MODEL      132
REMARK 921   NORMALIZED FREE ENERGY PREDICTED BY IDOCK:   -3.45 KCAL/MOL
REMARK 922        TOTAL FREE ENERGY PREDICTED BY IDOCK:   -4.25 KCAL/MOL
REMARK 923 INTER-LIGAND FREE ENERGY PREDICTED BY IDOCK:   -4.29 KCAL/MOL
REMARK 924 INTRA-LIGAND FREE ENERGY PREDICTED BY IDOCK:    0.04 KCAL/MOL
REMARK 927      BINDING AFFINITY PREDICTED BY RF-SCORE:    0.00 PKD
ROOT
HETATM    1  N   UNL     1      -9.880  14.363  65.243  1.00  0.00    -0.554 N  
HETATM    2  S   UNL     1     -10.062  15.719  66.226  1.00  0.00    -0.326 S  
HETATM    3  H1  UNL     1      -9.694  13.595  65.888  1.00  0.00     0.000 HD 
HETATM    4  H2  UNL     1      -9.944  14.319  64.226  1.00  0.00     0.000 HD 
HETATM    5  O   UNL     1     -10.327  16.806  65.313  1.00  0.00    -0.622 OA 
HETATM    6  O   UNL     1     -11.023  15.295  67.218  1.00  0.00    -0.316 OA 
ENDROOT
BRANCH   2   7
HETATM    7  C   UNL     1      -8.427  15.867  66.954  1.00  0.00    -0.240 C  
BRANCH   7   8
HETATM    8  C   UNL     1      -7.757  17.145  66.610  1.00  0.00    -0.265 A  
HETATM    9  N   UNL     1      -7.388  17.365  65.337  1.00  0.00     0.186 NA 
HETATM   10  O   UNL     1      -6.770  18.602  65.327  1.00  0.00    -0.473 OA 
HETATM   11  C   UNL     1      -6.745  19.108  66.585  1.00  0.00    -0.192 A  
HETATM   12  C   UNL     1      -6.201  20.332  66.966  1.00  0.00    -0.227 A  
HETATM   13  C   UNL     1      -6.285  20.654  68.324  1.00  0.00    -0.363 A  
HETATM   14  C   UNL     1      -6.877  19.778  69.237  1.00  0.00    -0.370 A  
HETATM   15  C   UNL     1      -7.409  18.548  68.819  1.00  0.00    -0.312 A  
HETATM   16  C   UNL     1      -7.352  18.215  67.454  1.00  0.00    -0.219 A  
ENDBRANCH   7   8
ENDBRANCH   2   7
TORSDOF 2
ENDMDL
MODEL      133
REMARK 921   NORMALIZED FREE ENERGY PREDICTED BY IDOCK:   -3.45 KCAL/MOL
REMARK 922        TOTAL FREE ENERGY PREDICTED BY IDOCK:   -4.25 KCAL/MOL
REMARK 923 INTER-LIGAND FREE ENERGY PREDICTED BY IDOCK:   -3.86 KCAL/MOL
REMARK 924 INTRA-LIGAND FREE ENERGY PREDICTED BY IDOCK:   -0.39 KCAL/MOL
REMARK 927      BINDING AFFINITY PREDICTED BY RF-SCORE:    0.00 PKD
ROOT
HETATM    1  N   UNL     1     -11.274   5.476  66.127  1.00  0.00    -0.761 N  
HETATM    2  S   UNL     1      -9.695   4.905  65.985  1.00  0.00    -0.202 S  
HETATM    3  H1  UNL     1     -11.389   6.125  65.349  1.00  0.00     0.000 HD 
HETATM    4  H2  UNL     1     -11.963   5.226  66.836  1.00  0.00     0.000 HD 
HETATM    5  O   UNL     1      -9.532   3.986  67.086  1.00  0.00    -0.171 OA 
HETATM    6  O   UNL     1      -9.610   4.479  64.606  1.00  0.00    -0.146 OA 
ENDROOT
BRANCH   2   7
HETATM    7  C   UNL     1      -8.738   6.403  66.241  1.00  0.00    -0.143 C  
BRANCH   7   8
HETATM    8  C   UNL     1      -9.508   7.466  66.934  1.00  0.00    -0.162 A  
HETATM    9  N   UNL     1     -10.043   7.203  68.138  1.00  0.00    -0.163 NA 
HETATM   10  O   UNL     1     -10.716   8.351  68.515  1.00  0.00    -0.144 OA 
HETATM   11  C   UNL     1     -10.608   9.283  67.535  1.00  0.00    -0.262 A  
HETATM   12  C   UNL     1     -11.159  10.562  67.558  1.00  0.00    -0.358 A  
HETATM   13  C   UNL     1     -10.921  11.361  66.434  1.00  0.00    -0.315 A  
HETATM   14  C   UNL     1     -10.178  10.880  65.354  1.00  0.00    -0.339 A  
HETATM   15  C   UNL     1      -9.643   9.583  65.363  1.00  0.00    -0.342 A  
HETATM   16  C   UNL     1      -9.855   8.771  66.491  1.00  0.00    -0.349 A  
ENDBRANCH   7   8
ENDBRANCH   2   7
TORSDOF 2
ENDMDL
MODEL      134
REMARK 921   NORMALIZED FREE ENERGY PREDICTED BY IDOCK:   -3.45 KCAL/MOL
REMARK 922        TOTAL FREE ENERGY PREDICTED BY IDOCK:   -4.25 KCAL/MOL
REMARK 923 INTER-LIGAND FREE ENERGY PREDICTED BY IDOCK:   -4.47 KCAL/MOL
REMARK 924 INTRA-LIGAND FREE ENERGY PREDICTED BY IDOCK:    0.22 KCAL/MOL
REMARK 927      BINDING AFFINITY PREDICTED BY RF-SCORE:    0.00 PKD
ROOT
HETATM    1  N   UNL     1      -9.947   7.230  71.236  1.00  0.00    -0.188 N  
HETATM    2  S   UNL     1     -10.683   7.356  69.725  1.00  0.00    -0.228 S  
HETATM    3  H1  UNL     1     -10.604   7.664  71.884  1.00  0.00     0.000 HD 
HETATM    4  H2  UNL     1      -9.044   6.812  71.454  1.00  0.00     0.000 HD 
HETATM    5  O   UNL     1      -9.753   6.741  68.807  1.00  0.00    -0.133 OA 
HETATM    6  O   UNL     1     -12.009   6.827  69.947  1.00  0.00    -0.244 OA 
ENDROOT
BRANCH   2   7
HETATM    7  C   UNL     1     -10.745   9.135  69.492  1.00  0.00    -0.215 C  
BRANCH   7   8
HETATM    8  C   UNL     1     -11.639   9.812  70.464  1.00  0.00    -0.292 A  
HETATM    9  N   UNL     1     -12.270   9.074  71.393  1.00  0.00    -0.310 NA 
HETATM   10  O   UNL     1     -13.043   9.958  72.122  1.00  0.00    -0.427 OA 
HETATM   11  C   UNL     1     -12.899  11.210  71.620  1.00  0.00    -0.419 A  
HETATM   12  C   UNL     1     -13.525  12.360  72.094  1.00  0.00    -0.481 A  
HETATM   13  C   UNL     1     -13.230  13.550  71.422  1.00  0.00    -0.348 A  
HETATM   14  C   UNL     1     -12.360  13.563  70.329  1.00  0.00    -0.370 A  
HETATM   15  C   UNL     1     -11.752  12.382  69.874  1.00  0.00    -0.339 A  
HETATM   16  C   UNL     1     -12.020  11.179  70.549  1.00  0.00    -0.475 A  
ENDBRANCH   7   8
ENDBRANCH   2   7
TORSDOF 2
ENDMDL
MODEL      135
REMARK 921   NORMALIZED FREE ENERGY PREDICTED BY IDOCK:   -3.44 KCAL/MOL
REMARK 922        TOTAL FREE ENERGY PREDICTED BY IDOCK:   -4.24 KCAL/MOL
REMARK 923 INTER-LIGAND FREE ENERGY PREDICTED BY IDOCK:   -4.13 KCAL/MOL
REMARK 924 INTRA-LIGAND FREE ENERGY PREDICTED BY IDOCK:   -0.12 KCAL/MOL
REMARK 927      BINDING AFFINITY PREDICTED BY RF-SCORE:    0.00 PKD
ROOT
HETATM    1  N   UNL     1     -11.983  14.252  66.338  1.00  0.00    -0.418 N  
HETATM    2  S   UNL     1     -10.650  14.518  67.333  1.00  0.00    -0.274 S  
HETATM    3  H1  UNL     1     -12.046  15.086  65.755  1.00  0.00     0.000 HD 
HETATM    4  H2  UNL     1     -12.594  13.435  66.323  1.00  0.00     0.000 HD 
HETATM    5  O   UNL     1     -10.561  13.337  68.159  1.00  0.00    -0.235 OA 
HETATM    6  O   UNL     1      -9.604  14.891  66.408  1.00  0.00    -0.260 OA 
ENDROOT
BRANCH   2   7
HETATM    7  C   UNL     1     -11.182  15.941  68.289  1.00  0.00    -0.354 C  
BRANCH   7   8
HETATM    8  C   UNL     1     -10.194  17.048  68.273  1.00  0.00    -0.326 A  
HETATM    9  N   UNL     1     -10.547  18.229  67.738  1.00  0.00    -0.412 NA 
HETATM   10  O   UNL     1      -9.431  19.040  67.834  1.00  0.00    -0.295 OA 
HETATM   11  C   UNL     1      -8.410  18.345  68.396  1.00  0.00    -0.308 A  
HETATM   12  C   UNL     1      -7.130  18.830  68.651  1.00  0.00    -0.321 A  
HETATM   13  C   UNL     1      -6.232  17.935  69.240  1.00  0.00    -0.242 A  
HETATM   14  C   UNL     1      -6.613  16.625  69.540  1.00  0.00    -0.212 A  
HETATM   15  C   UNL     1      -7.910  16.168  69.263  1.00  0.00    -0.203 A  
HETATM   16  C   UNL     1      -8.834  17.058  68.689  1.00  0.00    -0.267 A  
ENDBRANCH   7   8
ENDBRANCH   2   7
TORSDOF 2
ENDMDL
MODEL      136
REMARK 921   NORMALIZED FREE ENERGY PREDICTED BY IDOCK:   -3.43 KCAL/MOL
REMARK 922        TOTAL FREE ENERGY PREDICTED BY IDOCK:   -4.23 KCAL/MOL
REMARK 923 INTER-LIGAND FREE ENERGY PREDICTED BY IDOCK:   -3.83 KCAL/MOL
REMARK 924 INTRA-LIGAND FREE ENERGY PREDICTED BY IDOCK:   -0.40 KCAL/MOL
REMARK 927      BINDING AFFINITY PREDICTED BY RF-SCORE:    0.00 PKD
ROOT
HETATM    1  N   UNL     1      -8.451  10.624  69.573  1.00  0.00    -0.375 N  
HETATM    2  S   UNL     1      -9.177  10.961  68.090  1.00  0.00    -0.165 S  
HETATM    3  H1  UNL     1      -8.260   9.622  69.550  1.00  0.00     0.000 HD 
HETATM    4  H2  UNL     1      -8.248  11.278  70.328  1.00  0.00     0.000 HD 
HETATM    5  O   UNL     1      -9.448  12.379  68.124  1.00  0.00    -0.204 OA 
HETATM    6  O   UNL     1      -8.274  10.372  67.128  1.00  0.00    -0.120 OA 
ENDROOT
BRANCH   2   7
HETATM    7  C   UNL     1     -10.694  10.007  68.198  1.00  0.00    -0.239 C  
BRANCH   7   8
HETATM    8  C   UNL     1     -11.069   9.678  69.596  1.00  0.00    -0.193 A  
HETATM    9  N   UNL     1     -11.414  10.673  70.430  1.00  0.00    -0.325 NA 
HETATM   10  O   UNL     1     -11.676  10.075  71.649  1.00  0.00    -0.345 OA 
HETATM   11  C   UNL     1     -11.464   8.738  71.555  1.00  0.00    -0.305 A  
HETATM   12  C   UNL     1     -11.622   7.809  72.581  1.00  0.00    -0.398 A  
HETATM   13  C   UNL     1     -11.347   6.476  72.259  1.00  0.00    -0.318 A  
HETATM   14  C   UNL     1     -10.927   6.117  70.976  1.00  0.00    -0.354 A  
HETATM   15  C   UNL     1     -10.772   7.081  69.969  1.00  0.00    -0.267 A  
HETATM   16  C   UNL     1     -11.062   8.424  70.266  1.00  0.00    -0.216 A  
ENDBRANCH   7   8
ENDBRANCH   2   7
TORSDOF 2
ENDMDL
MODEL      137
REMARK 921   NORMALIZED FREE ENERGY PREDICTED BY IDOCK:   -3.41 KCAL/MOL
REMARK 922        TOTAL FREE ENERGY PREDICTED BY IDOCK:   -4.21 KCAL/MOL
REMARK 923 INTER-LIGAND FREE ENERGY PREDICTED BY IDOCK:   -3.77 KCAL/MOL
REMARK 924 INTRA-LIGAND FREE ENERGY PREDICTED BY IDOCK:   -0.44 KCAL/MOL
REMARK 927      BINDING AFFINITY PREDICTED BY RF-SCORE:    0.00 PKD
ROOT
HETATM    1  N   UNL     1      -8.627   8.234  67.690  1.00  0.00    -0.130 N  
HETATM    2  S   UNL     1     -10.234   8.522  67.271  1.00  0.00    -0.301 S  
HETATM    3  H1  UNL     1      -8.249   7.688  66.917  1.00  0.00     0.000 HD 
HETATM    4  H2  UNL     1      -8.141   8.539  68.533  1.00  0.00     0.000 HD 
HETATM    5  O   UNL     1     -10.770   9.296  68.366  1.00  0.00    -0.211 OA 
HETATM    6  O   UNL     1     -10.145   9.048  65.927  1.00  0.00    -0.240 OA 
ENDROOT
BRANCH   2   7
HETATM    7  C   UNL     1     -10.914   6.861  67.255  1.00  0.00    -0.336 C  
BRANCH   7   8
HETATM    8  C   UNL     1     -10.465   6.044  68.410  1.00  0.00    -0.238 A  
HETATM    9  N   UNL     1      -9.515   5.114  68.220  1.00  0.00    -0.122 NA 
HETATM   10  O   UNL     1      -9.330   4.503  69.447  1.00  0.00    -0.120 OA 
HETATM   11  C   UNL     1     -10.179   5.042  70.357  1.00  0.00    -0.254 A  
HETATM   12  C   UNL     1     -10.283   4.678  71.697  1.00  0.00    -0.233 A  
HETATM   13  C   UNL     1     -11.231   5.370  72.457  1.00  0.00    -0.305 A  
HETATM   14  C   UNL     1     -12.030   6.362  71.882  1.00  0.00    -0.381 A  
HETATM   15  C   UNL     1     -11.902   6.698  70.526  1.00  0.00    -0.430 A  
HETATM   16  C   UNL     1     -10.941   6.028  69.750  1.00  0.00    -0.471 A  
ENDBRANCH   7   8
ENDBRANCH   2   7
TORSDOF 2
ENDMDL
MODEL      138
REMARK 921   NORMALIZED FREE ENERGY PREDICTED BY IDOCK:   -3.41 KCAL/MOL
REMARK 922        TOTAL FREE ENERGY PREDICTED BY IDOCK:   -4.20 KCAL/MOL
REMARK 923 INTER-LIGAND FREE ENERGY PREDICTED BY IDOCK:   -3.99 KCAL/MOL
REMARK 924 INTRA-LIGAND FREE ENERGY PREDICTED BY IDOCK:   -0.22 KCAL/MOL
REMARK 927      BINDING AFFINITY PREDICTED BY RF-SCORE:    0.00 PKD
ROOT
HETATM    1  N   UNL     1      -9.576  17.567  68.339  1.00  0.00    -0.291 N  
HETATM    2  S   UNL     1      -8.849  17.790  66.835  1.00  0.00    -0.255 S  
HETATM    3  H1  UNL     1      -8.878  17.077  68.898  1.00  0.00     0.000 HD 
HETATM    4  H2  UNL     1     -10.510  17.858  68.627  1.00  0.00     0.000 HD 
HETATM    5  O   UNL     1      -9.838  18.484  66.045  1.00  0.00    -0.494 OA 
HETATM    6  O   UNL     1      -7.571  18.381  67.160  1.00  0.00    -0.217 OA 
ENDROOT
BRANCH   2   7
HETATM    7  C   UNL     1      -8.638  16.098  66.274  1.00  0.00    -0.338 C  
BRANCH   7   8
HETATM    8  C   UNL     1      -9.746  15.208  66.701  1.00  0.00    -0.258 A  
HETATM    9  N   UNL     1     -11.003  15.680  66.690  1.00  0.00    -0.264 NA 
HETATM   10  O   UNL     1     -11.801  14.654  67.161  1.00  0.00    -0.391 OA 
HETATM   11  C   UNL     1     -11.027  13.585  67.476  1.00  0.00    -0.268 A  
HETATM   12  C   UNL     1     -11.478  12.368  67.983  1.00  0.00    -0.377 A  
HETATM   13  C   UNL     1     -10.500  11.401  68.237  1.00  0.00    -0.221 A  
HETATM   14  C   UNL     1      -9.149  11.663  68.000  1.00  0.00    -0.177 A  
HETATM   15  C   UNL     1      -8.730  12.904  67.496  1.00  0.00    -0.190 A  
HETATM   16  C   UNL     1      -9.699  13.882  67.214  1.00  0.00    -0.245 A  
ENDBRANCH   7   8
ENDBRANCH   2   7
TORSDOF 2
ENDMDL
MODEL      139
REMARK 921   NORMALIZED FREE ENERGY PREDICTED BY IDOCK:   -3.40 KCAL/MOL
REMARK 922        TOTAL FREE ENERGY PREDICTED BY IDOCK:   -4.20 KCAL/MOL
REMARK 923 INTER-LIGAND FREE ENERGY PREDICTED BY IDOCK:   -3.72 KCAL/MOL
REMARK 924 INTRA-LIGAND FREE ENERGY PREDICTED BY IDOCK:   -0.48 KCAL/MOL
REMARK 927      BINDING AFFINITY PREDICTED BY RF-SCORE:    0.00 PKD
ROOT
HETATM    1  N   UNL     1      -6.751  18.349  65.766  1.00  0.00    -0.272 N  
HETATM    2  S   UNL     1      -7.520  19.767  66.251  1.00  0.00    -0.311 S  
HETATM    3  H1  UNL     1      -7.404  17.602  66.003  1.00  0.00     0.000 HD 
HETATM    4  H2  UNL     1      -5.833  18.258  65.330  1.00  0.00     0.000 HD 
HETATM    5  O   UNL     1      -6.596  20.824  65.915  1.00  0.00    -0.230 OA 
HETATM    6  O   UNL     1      -8.829  19.668  65.646  1.00  0.00    -0.328 OA 
ENDROOT
BRANCH   2   7
HETATM    7  C   UNL     1      -7.628  19.539  68.028  1.00  0.00    -0.296 C  
BRANCH   7   8
HETATM    8  C   UNL     1      -7.881  18.128  68.413  1.00  0.00    -0.297 A  
HETATM    9  N   UNL     1      -6.841  17.345  68.743  1.00  0.00    -0.217 NA 
HETATM   10  O   UNL     1      -7.373  16.099  69.018  1.00  0.00    -0.177 OA 
HETATM   11  C   UNL     1      -8.717  16.126  68.830  1.00  0.00    -0.240 A  
HETATM   12  C   UNL     1      -9.591  15.057  69.007  1.00  0.00    -0.225 A  
HETATM   13  C   UNL     1     -10.943  15.311  68.755  1.00  0.00    -0.260 A  
HETATM   14  C   UNL     1     -11.372  16.574  68.338  1.00  0.00    -0.209 A  
HETATM   15  C   UNL     1     -10.462  17.627  68.163  1.00  0.00    -0.386 A  
HETATM   16  C   UNL     1      -9.101  17.396  68.430  1.00  0.00    -0.274 A  
ENDBRANCH   7   8
ENDBRANCH   2   7
TORSDOF 2
ENDMDL
MODEL      140
REMARK 921   NORMALIZED FREE ENERGY PREDICTED BY IDOCK:   -3.38 KCAL/MOL
REMARK 922        TOTAL FREE ENERGY PREDICTED BY IDOCK:   -4.18 KCAL/MOL
REMARK 923 INTER-LIGAND FREE ENERGY PREDICTED BY IDOCK:   -4.73 KCAL/MOL
REMARK 924 INTRA-LIGAND FREE ENERGY PREDICTED BY IDOCK:    0.55 KCAL/MOL
REMARK 927      BINDING AFFINITY PREDICTED BY RF-SCORE:    0.00 PKD
ROOT
HETATM    1  N   UNL     1     -11.701   8.066  70.111  1.00  0.00    -0.464 N  
HETATM    2  S   UNL     1     -10.976   9.402  70.839  1.00  0.00    -0.350 S  
HETATM    3  H1  UNL     1     -10.934   7.423  69.920  1.00  0.00     0.000 HD 
HETATM    4  H2  UNL     1     -12.691   7.931  69.906  1.00  0.00     0.000 HD 
HETATM    5  O   UNL     1     -12.064  10.312  71.110  1.00  0.00    -0.341 OA 
HETATM    6  O   UNL     1     -10.177   8.821  71.894  1.00  0.00    -0.301 OA 
ENDROOT
BRANCH   2   7
HETATM    7  C   UNL     1      -9.927  10.016  69.518  1.00  0.00    -0.228 C  
BRANCH   7   8
HETATM    8  C   UNL     1     -10.661  10.867  68.549  1.00  0.00    -0.190 A  
HETATM    9  N   UNL     1     -11.597  11.716  69.005  1.00  0.00    -0.287 NA 
HETATM   10  O   UNL     1     -12.123  12.339  67.888  1.00  0.00    -0.466 OA 
HETATM   11  C   UNL     1     -11.528  11.851  66.771  1.00  0.00    -0.316 A  
HETATM   12  C   UNL     1     -11.800  12.237  65.462  1.00  0.00    -0.420 A  
HETATM   13  C   UNL     1     -11.063  11.599  64.459  1.00  0.00    -0.365 A  
HETATM   14  C   UNL     1     -10.116  10.621  64.774  1.00  0.00    -0.412 A  
HETATM   15  C   UNL     1      -9.873  10.251  66.105  1.00  0.00    -0.284 A  
HETATM   16  C   UNL     1     -10.589  10.896  67.129  1.00  0.00    -0.302 A  
ENDBRANCH   7   8
ENDBRANCH   2   7
TORSDOF 2
ENDMDL
MODEL      141
REMARK 921   NORMALIZED FREE ENERGY PREDICTED BY IDOCK:   -3.36 KCAL/MOL
REMARK 922        TOTAL FREE ENERGY PREDICTED BY IDOCK:   -4.15 KCAL/MOL
REMARK 923 INTER-LIGAND FREE ENERGY PREDICTED BY IDOCK:   -3.90 KCAL/MOL
REMARK 924 INTRA-LIGAND FREE ENERGY PREDICTED BY IDOCK:   -0.24 KCAL/MOL
REMARK 927      BINDING AFFINITY PREDICTED BY RF-SCORE:    0.00 PKD
ROOT
HETATM    1  N   UNL     1      -7.018  17.834  66.013  1.00  0.00    -0.299 N  
HETATM    2  S   UNL     1      -8.252  18.768  66.679  1.00  0.00    -0.298 S  
HETATM    3  H1  UNL     1      -7.410  16.895  65.941  1.00  0.00     0.000 HD 
HETATM    4  H2  UNL     1      -6.084  18.140  65.741  1.00  0.00     0.000 HD 
HETATM    5  O   UNL     1      -7.697  20.097  66.781  1.00  0.00    -0.282 OA 
HETATM    6  O   UNL     1      -9.393  18.471  65.843  1.00  0.00    -0.486 OA 
ENDROOT
BRANCH   2   7
HETATM    7  C   UNL     1      -8.447  18.020  68.300  1.00  0.00    -0.287 C  
BRANCH   7   8
HETATM    8  C   UNL     1      -9.543  17.021  68.344  1.00  0.00    -0.277 A  
HETATM    9  N   UNL     1     -10.765  17.411  68.744  1.00  0.00    -0.269 NA 
HETATM   10  O   UNL     1     -11.556  16.278  68.714  1.00  0.00    -0.342 OA 
HETATM   11  C   UNL     1     -10.812  15.213  68.325  1.00  0.00    -0.262 A  
HETATM   12  C   UNL     1     -11.266  13.904  68.182  1.00  0.00    -0.293 A  
HETATM   13  C   UNL     1     -10.320  12.960  67.767  1.00  0.00    -0.223 A  
HETATM   14  C   UNL     1      -8.994  13.328  67.526  1.00  0.00    -0.208 A  
HETATM   15  C   UNL     1      -8.570  14.656  67.688  1.00  0.00    -0.182 A  
HETATM   16  C   UNL     1      -9.510  15.623  68.085  1.00  0.00    -0.195 A  
ENDBRANCH   7   8
ENDBRANCH   2   7
TORSDOF 2
ENDMDL
MODEL      142
REMARK 921   NORMALIZED FREE ENERGY PREDICTED BY IDOCK:   -3.36 KCAL/MOL
REMARK 922        TOTAL FREE ENERGY PREDICTED BY IDOCK:   -4.15 KCAL/MOL
REMARK 923 INTER-LIGAND FREE ENERGY PREDICTED BY IDOCK:   -3.84 KCAL/MOL
REMARK 924 INTRA-LIGAND FREE ENERGY PREDICTED BY IDOCK:   -0.31 KCAL/MOL
REMARK 927      BINDING AFFINITY PREDICTED BY RF-SCORE:    0.00 PKD
ROOT
HETATM    1  N   UNL     1      -9.772   5.782  70.500  1.00  0.00    -0.172 N  
HETATM    2  S   UNL     1     -11.009   6.701  71.182  1.00  0.00    -0.270 S  
HETATM    3  H1  UNL     1      -8.976   5.909  71.125  1.00  0.00     0.000 HD 
HETATM    4  H2  UNL     1      -9.811   5.222  69.649  1.00  0.00     0.000 HD 
HETATM    5  O   UNL     1     -12.136   6.521  70.297  1.00  0.00    -0.348 OA 
HETATM    6  O   UNL     1     -11.035   6.268  72.560  1.00  0.00    -0.228 OA 
ENDROOT
BRANCH   2   7
HETATM    7  C   UNL     1     -10.343   8.364  71.057  1.00  0.00    -0.198 C  
BRANCH   7   8
HETATM    8  C   UNL     1     -10.439   8.920  69.684  1.00  0.00    -0.216 A  
HETATM    9  N   UNL     1      -9.944   8.209  68.657  1.00  0.00    -0.184 NA 
HETATM   10  O   UNL     1     -10.144   8.981  67.527  1.00  0.00    -0.196 OA 
HETATM   11  C   UNL     1     -10.728  10.155  67.876  1.00  0.00    -0.269 A  
HETATM   12  C   UNL     1     -11.079  11.185  67.007  1.00  0.00    -0.339 A  
HETATM   13  C   UNL     1     -11.674  12.311  67.586  1.00  0.00    -0.403 A  
HETATM   14  C   UNL     1     -11.886  12.384  68.965  1.00  0.00    -0.349 A  
HETATM   15  C   UNL     1     -11.513  11.329  69.812  1.00  0.00    -0.386 A  
HETATM   16  C   UNL     1     -10.932  10.180  69.246  1.00  0.00    -0.279 A  
ENDBRANCH   7   8
ENDBRANCH   2   7
TORSDOF 2
ENDMDL
MODEL      143
REMARK 921   NORMALIZED FREE ENERGY PREDICTED BY IDOCK:   -3.35 KCAL/MOL
REMARK 922        TOTAL FREE ENERGY PREDICTED BY IDOCK:   -4.13 KCAL/MOL
REMARK 923 INTER-LIGAND FREE ENERGY PREDICTED BY IDOCK:   -3.89 KCAL/MOL
REMARK 924 INTRA-LIGAND FREE ENERGY PREDICTED BY IDOCK:   -0.24 KCAL/MOL
REMARK 927      BINDING AFFINITY PREDICTED BY RF-SCORE:    0.00 PKD
ROOT
HETATM    1  N   UNL     1     -10.248   9.081  66.037  1.00  0.00    -0.334 N  
HETATM    2  S   UNL     1     -10.241  10.437  67.037  1.00  0.00    -0.236 S  
HETATM    3  H1  UNL     1      -9.314   9.051  65.629  1.00  0.00     0.000 HD 
HETATM    4  H2  UNL     1     -11.018   8.432  65.876  1.00  0.00     0.000 HD 
HETATM    5  O   UNL     1     -11.564  10.479  67.615  1.00  0.00    -0.447 OA 
HETATM    6  O   UNL     1      -9.054  10.260  67.842  1.00  0.00    -0.131 OA 
ENDROOT
BRANCH   2   7
HETATM    7  C   UNL     1     -10.007  11.766  65.853  1.00  0.00    -0.236 C  
BRANCH   7   8
HETATM    8  C   UNL     1     -10.588  13.053  66.310  1.00  0.00    -0.271 A  
HETATM    9  N   UNL     1     -11.736  13.482  65.760  1.00  0.00    -0.332 NA 
HETATM   10  O   UNL     1     -12.009  14.702  66.351  1.00  0.00    -0.356 OA 
HETATM   11  C   UNL     1     -11.021  15.015  67.227  1.00  0.00    -0.326 A  
HETATM   12  C   UNL     1     -10.952  16.167  68.007  1.00  0.00    -0.338 A  
HETATM   13  C   UNL     1      -9.838  16.284  68.845  1.00  0.00    -0.246 A  
HETATM   14  C   UNL     1      -8.854  15.293  68.876  1.00  0.00    -0.209 A  
HETATM   15  C   UNL     1      -8.954  14.148  68.071  1.00  0.00    -0.183 A  
HETATM   16  C   UNL     1     -10.075  14.002  67.237  1.00  0.00    -0.249 A  
ENDBRANCH   7   8
ENDBRANCH   2   7
TORSDOF 2
ENDMDL
MODEL      144
REMARK 921   NORMALIZED FREE ENERGY PREDICTED BY IDOCK:   -3.32 KCAL/MOL
REMARK 922        TOTAL FREE ENERGY PREDICTED BY IDOCK:   -4.11 KCAL/MOL
REMARK 923 INTER-LIGAND FREE ENERGY PREDICTED BY IDOCK:   -3.75 KCAL/MOL
REMARK 924 INTRA-LIGAND FREE ENERGY PREDICTED BY IDOCK:   -0.36 KCAL/MOL
REMARK 927      BINDING AFFINITY PREDICTED BY RF-SCORE:    0.00 PKD
ROOT
HETATM    1  N   UNL     1     -10.158   9.228  65.864  1.00  0.00    -0.367 N  
HETATM    2  S   UNL     1      -9.123  10.540  65.649  1.00  0.00    -0.193 S  
HETATM    3  H1  UNL     1     -11.071   9.643  66.051  1.00  0.00     0.000 HD 
HETATM    4  H2  UNL     1      -9.924   8.237  65.816  1.00  0.00     0.000 HD 
HETATM    5  O   UNL     1      -7.831   9.953  65.384  1.00  0.00    -0.120 OA 
HETATM    6  O   UNL     1      -9.810  11.361  64.678  1.00  0.00    -0.241 OA 
ENDROOT
BRANCH   2   7
HETATM    7  C   UNL     1      -9.166  11.312  67.270  1.00  0.00    -0.166 C  
BRANCH   7   8
HETATM    8  C   UNL     1      -9.571  10.372  68.344  1.00  0.00    -0.148 A  
HETATM    9  N   UNL     1      -8.915   9.206  68.472  1.00  0.00    -0.133 NA 
HETATM   10  O   UNL     1      -9.524   8.538  69.518  1.00  0.00    -0.163 OA 
HETATM   11  C   UNL     1     -10.552   9.283  69.996  1.00  0.00    -0.228 A  
HETATM   12  C   UNL     1     -11.398   8.934  71.047  1.00  0.00    -0.350 A  
HETATM   13  C   UNL     1     -12.396   9.857  71.374  1.00  0.00    -0.498 A  
HETATM   14  C   UNL     1     -12.529  11.055  70.666  1.00  0.00    -0.465 A  
HETATM   15  C   UNL     1     -11.662  11.370  69.609  1.00  0.00    -0.415 A  
HETATM   16  C   UNL     1     -10.640  10.464  69.277  1.00  0.00    -0.259 A  
ENDBRANCH   7   8
ENDBRANCH   2   7
TORSDOF 2
ENDMDL
MODEL      145
REMARK 921   NORMALIZED FREE ENERGY PREDICTED BY IDOCK:   -3.31 KCAL/MOL
REMARK 922        TOTAL FREE ENERGY PREDICTED BY IDOCK:   -4.10 KCAL/MOL
REMARK 923 INTER-LIGAND FREE ENERGY PREDICTED BY IDOCK:   -3.86 KCAL/MOL
REMARK 924 INTRA-LIGAND FREE ENERGY PREDICTED BY IDOCK:   -0.24 KCAL/MOL
REMARK 927      BINDING AFFINITY PREDICTED BY RF-SCORE:    0.00 PKD
ROOT
HETATM    1  N   UNL     1      -8.394  11.105  65.391  1.00  0.00    -0.377 N  
HETATM    2  S   UNL     1      -9.163   9.744  64.762  1.00  0.00    -0.254 S  
HETATM    3  H1  UNL     1      -8.018  10.802  66.290  1.00  0.00     0.000 HD 
HETATM    4  H2  UNL     1      -8.320  12.029  64.966  1.00  0.00     0.000 HD 
HETATM    5  O   UNL     1      -9.694  10.173  63.489  1.00  0.00    -0.273 OA 
HETATM    6  O   UNL     1      -8.161   8.708  64.868  1.00  0.00    -0.141 OA 
ENDROOT
BRANCH   2   7
HETATM    7  C   UNL     1     -10.475   9.477  65.957  1.00  0.00     0.081 C  
BRANCH   7   8
HETATM    8  C   UNL     1     -10.688  10.645  66.848  1.00  0.00    -0.237 A  
HETATM    9  N   UNL     1     -10.335  10.550  68.141  1.00  0.00    -0.164 NA 
HETATM   10  O   UNL     1     -10.676  11.760  68.718  1.00  0.00    -0.211 OA 
HETATM   11  C   UNL     1     -11.252  12.562  67.788  1.00  0.00    -0.269 A  
HETATM   12  C   UNL     1     -11.726  13.854  68.000  1.00  0.00    -0.387 A  
HETATM   13  C   UNL     1     -12.285  14.501  66.893  1.00  0.00    -0.220 A  
HETATM   14  C   UNL     1     -12.364  13.865  65.652  1.00  0.00    -0.511 A  
HETATM   15  C   UNL     1     -11.881  12.559  65.476  1.00  0.00    -0.491 A  
HETATM   16  C   UNL     1     -11.298  11.899  66.572  1.00  0.00    -0.403 A  
ENDBRANCH   7   8
ENDBRANCH   2   7
TORSDOF 2
ENDMDL
MODEL      146
REMARK 921   NORMALIZED FREE ENERGY PREDICTED BY IDOCK:   -3.31 KCAL/MOL
REMARK 922        TOTAL FREE ENERGY PREDICTED BY IDOCK:   -4.09 KCAL/MOL
REMARK 923 INTER-LIGAND FREE ENERGY PREDICTED BY IDOCK:   -3.69 KCAL/MOL
REMARK 924 INTRA-LIGAND FREE ENERGY PREDICTED BY IDOCK:   -0.40 KCAL/MOL
REMARK 927      BINDING AFFINITY PREDICTED BY RF-SCORE:    0.00 PKD
ROOT
HETATM    1  N   UNL     1      -9.231  13.316  68.014  1.00  0.00    -0.211 N  
HETATM    2  S   UNL     1      -9.101  11.650  67.803  1.00  0.00    -0.181 S  
HETATM    3  H1  UNL     1      -9.708  13.431  68.908  1.00  0.00     0.000 HD 
HETATM    4  H2  UNL     1      -8.903  14.050  67.386  1.00  0.00     0.000 HD 
HETATM    5  O   UNL     1      -8.425  11.488  66.538  1.00  0.00    -0.170 OA 
HETATM    6  O   UNL     1      -8.527  11.193  69.048  1.00  0.00    -0.131 OA 
ENDROOT
BRANCH   2   7
HETATM    7  C   UNL     1     -10.824  11.159  67.686  1.00  0.00    -0.247 C  
BRANCH   7   8
HETATM    8  C   UNL     1     -11.539  11.254  68.983  1.00  0.00    -0.319 A  
HETATM    9  N   UNL     1     -12.076  12.430  69.347  1.00  0.00    -0.230 NA 
HETATM   10  O   UNL     1     -12.638  12.223  70.593  1.00  0.00    -0.257 OA 
HETATM   11  C   UNL     1     -12.418  10.943  70.985  1.00  0.00    -0.411 A  
HETATM   12  C   UNL     1     -12.834  10.371  72.184  1.00  0.00    -0.321 A  
HETATM   13  C   UNL     1     -12.496   9.028  72.382  1.00  0.00    -0.375 A  
HETATM   14  C   UNL     1     -11.770   8.320  71.421  1.00  0.00    -0.327 A  
HETATM   15  C   UNL     1     -11.361   8.931  70.227  1.00  0.00    -0.179 A  
HETATM   16  C   UNL     1     -11.709  10.275  70.000  1.00  0.00    -0.330 A  
ENDBRANCH   7   8
ENDBRANCH   2   7
TORSDOF 2
ENDMDL
MODEL      147
REMARK 921   NORMALIZED FREE ENERGY PREDICTED BY IDOCK:   -3.29 KCAL/MOL
REMARK 922        TOTAL FREE ENERGY PREDICTED BY IDOCK:   -4.08 KCAL/MOL
REMARK 923 INTER-LIGAND FREE ENERGY PREDICTED BY IDOCK:   -3.96 KCAL/MOL
REMARK 924 INTRA-LIGAND FREE ENERGY PREDICTED BY IDOCK:   -0.12 KCAL/MOL
REMARK 927      BINDING AFFINITY PREDICTED BY RF-SCORE:    0.00 PKD
ROOT
HETATM    1  N   UNL     1      -9.275   7.264  70.428  1.00  0.00    -0.158 N  
HETATM    2  S   UNL     1      -9.760   8.806  70.905  1.00  0.00    -0.244 S  
HETATM    3  H1  UNL     1      -8.720   7.413  69.585  1.00  0.00     0.000 HD 
HETATM    4  H2  UNL     1      -9.489   6.377  70.883  1.00  0.00     0.000 HD 
HETATM    5  O   UNL     1     -10.545   8.595  72.099  1.00  0.00    -0.321 OA 
HETATM    6  O   UNL     1      -8.528   9.561  70.917  1.00  0.00    -0.269 OA 
ENDROOT
BRANCH   2   7
HETATM    7  C   UNL     1     -10.795   9.309  69.527  1.00  0.00    -0.195 C  
BRANCH   7   8
HETATM    8  C   UNL     1     -11.237  10.722  69.625  1.00  0.00    -0.291 A  
HETATM    9  N   UNL     1     -12.012  11.092  70.659  1.00  0.00    -0.362 NA 
HETATM   10  O   UNL     1     -12.285  12.434  70.468  1.00  0.00    -0.361 OA 
HETATM   11  C   UNL     1     -11.704  12.859  69.318  1.00  0.00    -0.321 A  
HETATM   12  C   UNL     1     -11.763  14.149  68.798  1.00  0.00    -0.380 A  
HETATM   13  C   UNL     1     -11.086  14.365  67.593  1.00  0.00    -0.311 A  
HETATM   14  C   UNL     1     -10.402  13.327  66.956  1.00  0.00    -0.246 A  
HETATM   15  C   UNL     1     -10.369  12.036  67.506  1.00  0.00    -0.217 A  
HETATM   16  C   UNL     1     -11.027  11.804  68.727  1.00  0.00    -0.281 A  
ENDBRANCH   7   8
ENDBRANCH   2   7
TORSDOF 2
ENDMDL
MODEL      148
REMARK 921   NORMALIZED FREE ENERGY PREDICTED BY IDOCK:   -3.29 KCAL/MOL
REMARK 922        TOTAL FREE ENERGY PREDICTED BY IDOCK:   -4.07 KCAL/MOL
REMARK 923 INTER-LIGAND FREE ENERGY PREDICTED BY IDOCK:   -3.71 KCAL/MOL
REMARK 924 INTRA-LIGAND FREE ENERGY PREDICTED BY IDOCK:   -0.37 KCAL/MOL
REMARK 927      BINDING AFFINITY PREDICTED BY RF-SCORE:    0.00 PKD
ROOT
HETATM    1  N   UNL     1     -10.351  10.730  69.721  1.00  0.00    -0.445 N  
HETATM    2  S   UNL     1      -9.165   9.537  69.614  1.00  0.00    -0.215 S  
HETATM    3  H1  UNL     1     -10.930  10.454  70.514  1.00  0.00     0.000 HD 
HETATM    4  H2  UNL     1     -10.465  11.549  69.124  1.00  0.00     0.000 HD 
HETATM    5  O   UNL     1      -8.346   9.929  68.492  1.00  0.00    -0.104 OA 
HETATM    6  O   UNL     1      -8.642   9.457  70.959  1.00  0.00    -0.274 OA 
ENDROOT
BRANCH   2   7
HETATM    7  C   UNL     1     -10.142   8.081  69.229  1.00  0.00    -0.198 C  
BRANCH   7   8
HETATM    8  C   UNL     1     -10.745   7.458  70.434  1.00  0.00    -0.237 A  
HETATM    9  N   UNL     1     -11.681   8.136  71.118  1.00  0.00    -0.283 NA 
HETATM   10  O   UNL     1     -12.029   7.332  72.188  1.00  0.00    -0.291 OA 
HETATM   11  C   UNL     1     -11.290   6.194  72.161  1.00  0.00    -0.299 A  
HETATM   12  C   UNL     1     -11.360   5.149  73.079  1.00  0.00    -0.381 A  
HETATM   13  C   UNL     1     -10.502   4.068  72.856  1.00  0.00    -0.247 A  
HETATM   14  C   UNL     1      -9.620   4.060  71.772  1.00  0.00    -0.223 A  
HETATM   15  C   UNL     1      -9.572   5.134  70.871  1.00  0.00    -0.235 A  
HETATM   16  C   UNL     1     -10.441   6.221  71.066  1.00  0.00    -0.274 A  
ENDBRANCH   7   8
ENDBRANCH   2   7
TORSDOF 2
ENDMDL
MODEL      149
REMARK 921   NORMALIZED FREE ENERGY PREDICTED BY IDOCK:   -3.29 KCAL/MOL
REMARK 922        TOTAL FREE ENERGY PREDICTED BY IDOCK:   -4.07 KCAL/MOL
REMARK 923 INTER-LIGAND FREE ENERGY PREDICTED BY IDOCK:   -4.16 KCAL/MOL
REMARK 924 INTRA-LIGAND FREE ENERGY PREDICTED BY IDOCK:    0.09 KCAL/MOL
REMARK 927      BINDING AFFINITY PREDICTED BY RF-SCORE:    0.00 PKD
ROOT
HETATM    1  N   UNL     1     -12.377  15.006  68.349  1.00  0.00    -0.544 N  
HETATM    2  S   UNL     1     -11.047  14.762  69.355  1.00  0.00    -0.291 S  
HETATM    3  H1  UNL     1     -11.987  15.381  67.485  1.00  0.00     0.000 HD 
HETATM    4  H2  UNL     1     -13.357  14.819  68.559  1.00  0.00     0.000 HD 
HETATM    5  O   UNL     1     -11.600  14.230  70.578  1.00  0.00    -0.260 OA 
HETATM    6  O   UNL     1     -10.132  14.005  68.531  1.00  0.00    -0.230 OA 
ENDROOT
BRANCH   2   7
HETATM    7  C   UNL     1     -10.448  16.438  69.587  1.00  0.00    -0.278 C  
BRANCH   7   8
HETATM    8  C   UNL     1     -10.003  17.071  68.321  1.00  0.00    -0.285 A  
HETATM    9  N   UNL     1     -10.539  16.655  67.161  1.00  0.00    -0.299 NA 
HETATM   10  O   UNL     1      -9.917  17.390  66.168  1.00  0.00    -0.356 OA 
HETATM   11  C   UNL     1      -9.000  18.221  66.724  1.00  0.00    -0.284 A  
HETATM   12  C   UNL     1      -8.178  19.111  66.038  1.00  0.00    -0.178 A  
HETATM   13  C   UNL     1      -7.302  19.874  66.816  1.00  0.00    -0.270 A  
HETATM   14  C   UNL     1      -7.259  19.729  68.205  1.00  0.00    -0.329 A  
HETATM   15  C   UNL     1      -8.097  18.816  68.863  1.00  0.00    -0.267 A  
HETATM   16  C   UNL     1      -9.000  18.054  68.100  1.00  0.00    -0.287 A  
ENDBRANCH   7   8
ENDBRANCH   2   7
TORSDOF 2
ENDMDL
MODEL      150
REMARK 921   NORMALIZED FREE ENERGY PREDICTED BY IDOCK:   -3.29 KCAL/MOL
REMARK 922        TOTAL FREE ENERGY PREDICTED BY IDOCK:   -4.07 KCAL/MOL
REMARK 923 INTER-LIGAND FREE ENERGY PREDICTED BY IDOCK:   -3.67 KCAL/MOL
REMARK 924 INTRA-LIGAND FREE ENERGY PREDICTED BY IDOCK:   -0.41 KCAL/MOL
REMARK 927      BINDING AFFINITY PREDICTED BY RF-SCORE:    0.00 PKD
ROOT
HETATM    1  N   UNL     1      -9.932  15.197  69.354  1.00  0.00    -0.292 N  
HETATM    2  S   UNL     1      -9.696  14.268  67.967  1.00  0.00    -0.229 S  
HETATM    3  H1  UNL     1      -9.996  16.157  69.018  1.00  0.00     0.000 HD 
HETATM    4  H2  UNL     1      -9.998  14.869  70.317  1.00  0.00     0.000 HD 
HETATM    5  O   UNL     1      -9.607  12.908  68.443  1.00  0.00    -0.221 OA 
HETATM    6  O   UNL     1     -10.750  14.707  67.081  1.00  0.00    -0.282 OA 
ENDROOT
BRANCH   2   7
HETATM    7  C   UNL     1      -8.102  14.862  67.394  1.00  0.00    -0.196 C  
BRANCH   7   8
HETATM    8  C   UNL     1      -7.705  16.146  68.024  1.00  0.00    -0.137 A  
HETATM    9  N   UNL     1      -7.128  16.126  69.237  1.00  0.00    -0.213 NA 
HETATM   10  O   UNL     1      -6.905  17.448  69.575  1.00  0.00    -0.207 OA 
HETATM   11  C   UNL     1      -7.366  18.255  68.586  1.00  0.00    -0.290 A  
HETATM   12  C   UNL     1      -7.317  19.646  68.574  1.00  0.00    -0.371 A  
HETATM   13  C   UNL     1      -7.855  20.277  67.448  1.00  0.00    -0.361 A  
HETATM   14  C   UNL     1      -8.416  19.535  66.406  1.00  0.00    -0.373 A  
HETATM   15  C   UNL     1      -8.455  18.133  66.455  1.00  0.00    -0.283 A  
HETATM   16  C   UNL     1      -7.901  17.479  67.570  1.00  0.00    -0.210 A  
ENDBRANCH   7   8
ENDBRANCH   2   7
TORSDOF 2
ENDMDL
MODEL      151
REMARK 921   NORMALIZED FREE ENERGY PREDICTED BY IDOCK:   -3.28 KCAL/MOL
REMARK 922        TOTAL FREE ENERGY PREDICTED BY IDOCK:   -4.06 KCAL/MOL
REMARK 923 INTER-LIGAND FREE ENERGY PREDICTED BY IDOCK:   -3.73 KCAL/MOL
REMARK 924 INTRA-LIGAND FREE ENERGY PREDICTED BY IDOCK:   -0.33 KCAL/MOL
REMARK 927      BINDING AFFINITY PREDICTED BY RF-SCORE:    0.00 PKD
ROOT
HETATM    1  N   UNL     1     -11.351   6.815  67.073  1.00  0.00    -0.778 N  
HETATM    2  S   UNL     1      -9.743   6.310  67.081  1.00  0.00    -0.148 S  
HETATM    3  H1  UNL     1     -11.433   7.415  66.253  1.00  0.00     0.000 HD 
HETATM    4  H2  UNL     1     -12.081   6.572  67.742  1.00  0.00     0.000 HD 
HETATM    5  O   UNL     1      -9.627   5.460  68.243  1.00  0.00    -0.115 OA 
HETATM    6  O   UNL     1      -9.535   5.814  65.740  1.00  0.00    -0.102 OA 
ENDROOT
BRANCH   2   7
HETATM    7  C   UNL     1      -8.871   7.861  67.322  1.00  0.00    -0.127 C  
BRANCH   7   8
HETATM    8  C   UNL     1      -9.785   9.028  67.404  1.00  0.00    -0.168 A  
HETATM    9  N   UNL     1     -10.113   9.679  66.276  1.00  0.00    -0.263 NA 
HETATM   10  O   UNL     1     -10.936  10.721  66.662  1.00  0.00    -0.209 OA 
HETATM   11  C   UNL     1     -11.080  10.710  68.011  1.00  0.00    -0.301 A  
HETATM   12  C   UNL     1     -11.834  11.609  68.762  1.00  0.00    -0.387 A  
HETATM   13  C   UNL     1     -11.841  11.409  70.146  1.00  0.00    -0.440 A  
HETATM   14  C   UNL     1     -11.116  10.366  70.727  1.00  0.00    -0.197 A  
HETATM   15  C   UNL     1     -10.361   9.484  69.940  1.00  0.00    -0.265 A  
HETATM   16  C   UNL     1     -10.357   9.655  68.545  1.00  0.00    -0.231 A  
ENDBRANCH   7   8
ENDBRANCH   2   7
TORSDOF 2
ENDMDL
MODEL      152
REMARK 921   NORMALIZED FREE ENERGY PREDICTED BY IDOCK:   -3.26 KCAL/MOL
REMARK 922        TOTAL FREE ENERGY PREDICTED BY IDOCK:   -4.04 KCAL/MOL
REMARK 923 INTER-LIGAND FREE ENERGY PREDICTED BY IDOCK:   -3.57 KCAL/MOL
REMARK 924 INTRA-LIGAND FREE ENERGY PREDICTED BY IDOCK:   -0.47 KCAL/MOL
REMARK 927      BINDING AFFINITY PREDICTED BY RF-SCORE:    0.00 PKD
ROOT
HETATM    1  N   UNL     1      -8.621   6.573  71.712  1.00  0.00    -0.124 N  
HETATM    2  S   UNL     1      -9.284   7.959  72.404  1.00  0.00    -0.203 S  
HETATM    3  H1  UNL     1      -8.557   6.783  70.715  1.00  0.00     0.000 HD 
HETATM    4  H2  UNL     1      -8.343   5.714  72.185  1.00  0.00     0.000 HD 
HETATM    5  O   UNL     1      -9.374   7.662  73.814  1.00  0.00    -0.263 OA 
HETATM    6  O   UNL     1      -8.453   9.025  71.893  1.00  0.00    -0.363 OA 
ENDROOT
BRANCH   2   7
HETATM    7  C   UNL     1     -10.910   8.007  71.645  1.00  0.00    -0.237 C  
BRANCH   7   8
HETATM    8  C   UNL     1     -10.902   7.539  70.237  1.00  0.00    -0.246 A  
HETATM    9  N   UNL     1     -11.257   6.271  69.970  1.00  0.00    -0.385 NA 
HETATM   10  O   UNL     1     -11.124   6.117  68.602  1.00  0.00    -0.339 OA 
HETATM   11  C   UNL     1     -10.669   7.273  68.057  1.00  0.00    -0.146 A  
HETATM   12  C   UNL     1     -10.412   7.497  66.706  1.00  0.00    -0.319 A  
HETATM   13  C   UNL     1      -9.946   8.771  66.365  1.00  0.00    -0.346 A  
HETATM   14  C   UNL     1      -9.745   9.749  67.342  1.00  0.00    -0.202 A  
HETATM   15  C   UNL     1     -10.009   9.486  68.695  1.00  0.00    -0.181 A  
HETATM   16  C   UNL     1     -10.497   8.219  69.056  1.00  0.00    -0.212 A  
ENDBRANCH   7   8
ENDBRANCH   2   7
TORSDOF 2
ENDMDL
MODEL      153
REMARK 921   NORMALIZED FREE ENERGY PREDICTED BY IDOCK:   -3.26 KCAL/MOL
REMARK 922        TOTAL FREE ENERGY PREDICTED BY IDOCK:   -4.04 KCAL/MOL
REMARK 923 INTER-LIGAND FREE ENERGY PREDICTED BY IDOCK:   -3.81 KCAL/MOL
REMARK 924 INTRA-LIGAND FREE ENERGY PREDICTED BY IDOCK:   -0.23 KCAL/MOL
REMARK 927      BINDING AFFINITY PREDICTED BY RF-SCORE:    0.00 PKD
ROOT
HETATM    1  N   UNL     1     -11.300   6.677  69.166  1.00  0.00    -0.572 N  
HETATM    2  S   UNL     1     -10.271   7.925  68.692  1.00  0.00    -0.203 S  
HETATM    3  H1  UNL     1     -12.233   6.991  68.899  1.00  0.00     0.000 HD 
HETATM    4  H2  UNL     1     -11.045   5.800  69.620  1.00  0.00     0.000 HD 
HETATM    5  O   UNL     1      -8.950   7.480  69.069  1.00  0.00    -0.132 OA 
HETATM    6  O   UNL     1     -10.639   8.163  67.314  1.00  0.00    -0.299 OA 
ENDROOT
BRANCH   2   7
HETATM    7  C   UNL     1     -10.825   9.276  69.736  1.00  0.00    -0.224 C  
BRANCH   7   8
HETATM    8  C   UNL     1     -11.064  10.529  68.977  1.00  0.00    -0.249 A  
HETATM    9  N   UNL     1     -12.328  10.932  68.765  1.00  0.00    -0.401 NA 
HETATM   10  O   UNL     1     -12.238  12.091  68.017  1.00  0.00    -0.454 OA 
HETATM   11  C   UNL     1     -10.935  12.367  67.759  1.00  0.00    -0.228 A  
HETATM   12  C   UNL     1     -10.455  13.453  67.031  1.00  0.00    -0.257 A  
HETATM   13  C   UNL     1      -9.067  13.541  66.888  1.00  0.00    -0.246 A  
HETATM   14  C   UNL     1      -8.223  12.576  67.445  1.00  0.00    -0.183 A  
HETATM   15  C   UNL     1      -8.742  11.491  68.167  1.00  0.00    -0.157 A  
HETATM   16  C   UNL     1     -10.134  11.395  68.339  1.00  0.00    -0.207 A  
ENDBRANCH   7   8
ENDBRANCH   2   7
TORSDOF 2
ENDMDL
MODEL      154
REMARK 921   NORMALIZED FREE ENERGY PREDICTED BY IDOCK:   -3.25 KCAL/MOL
REMARK 922        TOTAL FREE ENERGY PREDICTED BY IDOCK:   -4.03 KCAL/MOL
REMARK 923 INTER-LIGAND FREE ENERGY PREDICTED BY IDOCK:   -3.86 KCAL/MOL
REMARK 924 INTRA-LIGAND FREE ENERGY PREDICTED BY IDOCK:   -0.17 KCAL/MOL
REMARK 927      BINDING AFFINITY PREDICTED BY RF-SCORE:    0.00 PKD
ROOT
HETATM    1  N   UNL     1     -12.700  13.717  65.426  1.00  0.00    -0.647 N  
HETATM    2  S   UNL     1     -11.031  13.655  65.647  1.00  0.00    -0.295 S  
HETATM    3  H1  UNL     1     -13.086  13.154  66.183  1.00  0.00     0.000 HD 
HETATM    4  H2  UNL     1     -13.212  14.211  64.695  1.00  0.00     0.000 HD 
HETATM    5  O   UNL     1     -10.485  14.453  64.575  1.00  0.00    -0.349 OA 
HETATM    6  O   UNL     1     -10.858  14.010  67.037  1.00  0.00    -0.285 OA 
ENDROOT
BRANCH   2   7
HETATM    7  C   UNL     1     -10.692  11.910  65.395  1.00  0.00    -0.283 C  
BRANCH   7   8
HETATM    8  C   UNL     1      -9.818  11.335  66.449  1.00  0.00    -0.211 A  
HETATM    9  N   UNL     1      -8.504  11.200  66.204  1.00  0.00    -0.170 NA 
HETATM   10  O   UNL     1      -7.963  10.619  67.335  1.00  0.00    -0.109 OA 
HETATM   11  C   UNL     1      -8.946  10.383  68.240  1.00  0.00    -0.135 A  
HETATM   12  C   UNL     1      -8.782   9.805  69.497  1.00  0.00    -0.193 A  
HETATM   13  C   UNL     1      -9.940   9.656  70.268  1.00  0.00    -0.326 A  
HETATM   14  C   UNL     1     -11.185  10.061  69.782  1.00  0.00    -0.307 A  
HETATM   15  C   UNL     1     -11.314  10.634  68.508  1.00  0.00    -0.348 A  
HETATM   16  C   UNL     1     -10.160  10.810  67.725  1.00  0.00    -0.201 A  
ENDBRANCH   7   8
ENDBRANCH   2   7
TORSDOF 2
ENDMDL
MODEL      155
REMARK 921   NORMALIZED FREE ENERGY PREDICTED BY IDOCK:   -3.25 KCAL/MOL
REMARK 922        TOTAL FREE ENERGY PREDICTED BY IDOCK:   -4.03 KCAL/MOL
REMARK 923 INTER-LIGAND FREE ENERGY PREDICTED BY IDOCK:   -3.95 KCAL/MOL
REMARK 924 INTRA-LIGAND FREE ENERGY PREDICTED BY IDOCK:   -0.08 KCAL/MOL
REMARK 927      BINDING AFFINITY PREDICTED BY RF-SCORE:    0.00 PKD
ROOT
HETATM    1  N   UNL     1      -8.486  13.528  67.270  1.00  0.00    -0.206 N  
HETATM    2  S   UNL     1     -10.092  13.380  66.780  1.00  0.00    -0.265 S  
HETATM    3  H1  UNL     1      -8.503  14.223  68.016  1.00  0.00     0.000 HD 
HETATM    4  H2  UNL     1      -7.676  13.031  66.901  1.00  0.00     0.000 HD 
HETATM    5  O   UNL     1     -10.069  12.396  65.724  1.00  0.00    -0.247 OA 
HETATM    6  O   UNL     1     -10.807  13.165  68.018  1.00  0.00    -0.230 OA 
ENDROOT
BRANCH   2   7
HETATM    7  C   UNL     1     -10.432  15.020  66.134  1.00  0.00    -0.305 C  
BRANCH   7   8
HETATM    8  C   UNL     1     -10.129  16.098  67.108  1.00  0.00    -0.269 A  
HETATM    9  N   UNL     1     -10.938  16.264  68.168  1.00  0.00    -0.343 NA 
HETATM   10  O   UNL     1     -10.431  17.344  68.868  1.00  0.00    -0.345 OA 
HETATM   11  C   UNL     1      -9.345  17.836  68.222  1.00  0.00    -0.288 A  
HETATM   12  C   UNL     1      -8.573  18.922  68.627  1.00  0.00    -0.376 A  
HETATM   13  C   UNL     1      -7.493  19.258  67.804  1.00  0.00    -0.289 A  
HETATM   14  C   UNL     1      -7.225  18.538  66.637  1.00  0.00    -0.239 A  
HETATM   15  C   UNL     1      -8.029  17.453  66.257  1.00  0.00    -0.314 A  
HETATM   16  C   UNL     1      -9.107  17.087  67.081  1.00  0.00    -0.232 A  
ENDBRANCH   7   8
ENDBRANCH   2   7
TORSDOF 2
ENDMDL
MODEL      156
REMARK 921   NORMALIZED FREE ENERGY PREDICTED BY IDOCK:   -3.25 KCAL/MOL
REMARK 922        TOTAL FREE ENERGY PREDICTED BY IDOCK:   -4.03 KCAL/MOL
REMARK 923 INTER-LIGAND FREE ENERGY PREDICTED BY IDOCK:   -3.69 KCAL/MOL
REMARK 924 INTRA-LIGAND FREE ENERGY PREDICTED BY IDOCK:   -0.34 KCAL/MOL
REMARK 927      BINDING AFFINITY PREDICTED BY RF-SCORE:    0.00 PKD
ROOT
HETATM    1  N   UNL     1      -9.458   8.757  65.526  1.00  0.00    -0.452 N  
HETATM    2  S   UNL     1      -8.846   9.582  66.862  1.00  0.00    -0.128 S  
HETATM    3  H1  UNL     1     -10.153   9.386  65.125  1.00  0.00     0.000 HD 
HETATM    4  H2  UNL     1      -9.191   7.831  65.192  1.00  0.00     0.000 HD 
HETATM    5  O   UNL     1      -7.861   8.691  67.428  1.00  0.00    -0.097 OA 
HETATM    6  O   UNL     1      -8.495  10.879  66.329  1.00  0.00    -0.156 OA 
ENDROOT
BRANCH   2   7
HETATM    7  C   UNL     1     -10.294   9.704  67.915  1.00  0.00    -0.224 C  
BRANCH   7   8
HETATM    8  C   UNL     1     -10.578   8.446  68.651  1.00  0.00    -0.113 A  
HETATM    9  N   UNL     1     -10.766   7.312  67.955  1.00  0.00    -0.179 NA 
HETATM   10  O   UNL     1     -11.038   6.332  68.891  1.00  0.00    -0.336 OA 
HETATM   11  C   UNL     1     -11.040   6.876  70.134  1.00  0.00    -0.299 A  
HETATM   12  C   UNL     1     -11.278   6.197  71.326  1.00  0.00    -0.348 A  
HETATM   13  C   UNL     1     -11.231   6.961  72.496  1.00  0.00    -0.304 A  
HETATM   14  C   UNL     1     -10.968   8.332  72.451  1.00  0.00    -0.438 A  
HETATM   15  C   UNL     1     -10.739   8.985  71.230  1.00  0.00    -0.379 A  
HETATM   16  C   UNL     1     -10.763   8.231  70.044  1.00  0.00    -0.239 A  
ENDBRANCH   7   8
ENDBRANCH   2   7
TORSDOF 2
ENDMDL
MODEL      157
REMARK 921   NORMALIZED FREE ENERGY PREDICTED BY IDOCK:   -3.23 KCAL/MOL
REMARK 922        TOTAL FREE ENERGY PREDICTED BY IDOCK:   -4.00 KCAL/MOL
REMARK 923 INTER-LIGAND FREE ENERGY PREDICTED BY IDOCK:   -3.69 KCAL/MOL
REMARK 924 INTRA-LIGAND FREE ENERGY PREDICTED BY IDOCK:   -0.31 KCAL/MOL
REMARK 927      BINDING AFFINITY PREDICTED BY RF-SCORE:    0.00 PKD
ROOT
HETATM    1  N   UNL     1     -11.075   4.531  65.368  1.00  0.00    -0.932 N  
HETATM    2  S   UNL     1      -9.476   4.074  65.099  1.00  0.00    -0.183 S  
HETATM    3  H1  UNL     1     -11.057   5.550  65.384  1.00  0.00     0.000 HD 
HETATM    4  H2  UNL     1     -11.884   3.921  65.487  1.00  0.00     0.000 HD 
HETATM    5  O   UNL     1      -9.502   2.630  65.075  1.00  0.00    -0.142 OA 
HETATM    6  O   UNL     1      -9.087   4.856  63.948  1.00  0.00    -0.093 OA 
ENDROOT
BRANCH   2   7
HETATM    7  C   UNL     1      -8.665   4.685  66.580  1.00  0.00    -0.111 C  
BRANCH   7   8
HETATM    8  C   UNL     1      -9.526   5.597  67.373  1.00  0.00    -0.114 A  
HETATM    9  N   UNL     1      -9.990   6.719  66.798  1.00  0.00    -0.185 NA 
HETATM   10  O   UNL     1     -10.723   7.371  67.772  1.00  0.00    -0.223 OA 
HETATM   11  C   UNL     1     -10.678   6.662  68.928  1.00  0.00    -0.264 A  
HETATM   12  C   UNL     1     -11.295   7.008  70.127  1.00  0.00    -0.321 A  
HETATM   13  C   UNL     1     -11.114   6.125  71.196  1.00  0.00    -0.360 A  
HETATM   14  C   UNL     1     -10.343   4.969  71.053  1.00  0.00    -0.254 A  
HETATM   15  C   UNL     1      -9.730   4.655  69.831  1.00  0.00    -0.279 A  
HETATM   16  C   UNL     1      -9.916   5.519  68.738  1.00  0.00    -0.231 A  
ENDBRANCH   7   8
ENDBRANCH   2   7
TORSDOF 2
ENDMDL
MODEL      158
REMARK 921   NORMALIZED FREE ENERGY PREDICTED BY IDOCK:   -3.23 KCAL/MOL
REMARK 922        TOTAL FREE ENERGY PREDICTED BY IDOCK:   -4.00 KCAL/MOL
REMARK 923 INTER-LIGAND FREE ENERGY PREDICTED BY IDOCK:   -3.84 KCAL/MOL
REMARK 924 INTRA-LIGAND FREE ENERGY PREDICTED BY IDOCK:   -0.16 KCAL/MOL
REMARK 927      BINDING AFFINITY PREDICTED BY RF-SCORE:    0.00 PKD
ROOT
HETATM    1  N   UNL     1      -8.418  10.788  69.421  1.00  0.00    -0.373 N  
HETATM    2  S   UNL     1      -8.763   9.286  70.102  1.00  0.00    -0.223 S  
HETATM    3  H1  UNL     1      -9.183  11.393  69.721  1.00  0.00     0.000 HD 
HETATM    4  H2  UNL     1      -7.620  11.037  68.838  1.00  0.00     0.000 HD 
HETATM    5  O   UNL     1      -7.681   8.429  69.678  1.00  0.00    -0.090 OA 
HETATM    6  O   UNL     1      -9.004   9.591  71.494  1.00  0.00    -0.178 OA 
ENDROOT
BRANCH   2   7
HETATM    7  C   UNL     1     -10.297   8.851  69.278  1.00  0.00    -0.213 C  
BRANCH   7   8
HETATM    8  C   UNL     1     -10.626   9.764  68.155  1.00  0.00    -0.231 A  
HETATM    9  N   UNL     1     -11.660  10.611  68.285  1.00  0.00    -0.431 NA 
HETATM   10  O   UNL     1     -11.742  11.299  67.088  1.00  0.00    -0.533 OA 
HETATM   11  C   UNL     1     -10.783  10.851  66.239  1.00  0.00    -0.176 A  
HETATM   12  C   UNL     1     -10.560  11.306  64.942  1.00  0.00    -0.364 A  
HETATM   13  C   UNL     1      -9.512  10.700  64.243  1.00  0.00    -0.321 A  
HETATM   14  C   UNL     1      -8.748   9.687  64.827  1.00  0.00    -0.219 A  
HETATM   15  C   UNL     1      -9.006   9.248  66.135  1.00  0.00    -0.202 A  
HETATM   16  C   UNL     1     -10.043   9.859  66.861  1.00  0.00    -0.285 A  
ENDBRANCH   7   8
ENDBRANCH   2   7
TORSDOF 2
ENDMDL
MODEL      159
REMARK 921   NORMALIZED FREE ENERGY PREDICTED BY IDOCK:   -3.22 KCAL/MOL
REMARK 922        TOTAL FREE ENERGY PREDICTED BY IDOCK:   -3.99 KCAL/MOL
REMARK 923 INTER-LIGAND FREE ENERGY PREDICTED BY IDOCK:   -3.93 KCAL/MOL
REMARK 924 INTRA-LIGAND FREE ENERGY PREDICTED BY IDOCK:   -0.06 KCAL/MOL
REMARK 927      BINDING AFFINITY PREDICTED BY RF-SCORE:    0.00 PKD
ROOT
HETATM    1  N   UNL     1      -8.913  20.164  66.105  1.00  0.00    -0.567 N  
HETATM    2  S   UNL     1     -10.392  19.368  66.244  1.00  0.00    -0.517 S  
HETATM    3  H1  UNL     1      -8.586  19.947  65.163  1.00  0.00     0.000 HD 
HETATM    4  H2  UNL     1      -8.447  20.738  66.808  1.00  0.00     0.000 HD 
HETATM    5  O   UNL     1     -10.854  19.676  67.577  1.00  0.00    -0.452 OA 
HETATM    6  O   UNL     1     -11.114  19.783  65.063  1.00  0.00    -0.259 OA 
ENDROOT
BRANCH   2   7
HETATM    7  C   UNL     1      -9.897  17.648  66.109  1.00  0.00    -0.242 C  
BRANCH   7   8
HETATM    8  C   UNL     1      -8.524  17.402  66.617  1.00  0.00    -0.261 A  
HETATM    9  N   UNL     1      -7.480  17.910  65.942  1.00  0.00    -0.519 NA 
HETATM   10  O   UNL     1      -6.349  17.497  66.623  1.00  0.00    -0.165 OA 
HETATM   11  C   UNL     1      -6.710  16.726  67.680  1.00  0.00    -0.142 A  
HETATM   12  C   UNL     1      -5.845  16.130  68.593  1.00  0.00    -0.105 A  
HETATM   13  C   UNL     1      -6.438  15.375  69.610  1.00  0.00    -0.171 A  
HETATM   14  C   UNL     1      -7.826  15.229  69.683  1.00  0.00    -0.144 A  
HETATM   15  C   UNL     1      -8.667  15.840  68.740  1.00  0.00    -0.203 A  
HETATM   16  C   UNL     1      -8.092  16.619  67.722  1.00  0.00    -0.185 A  
ENDBRANCH   7   8
ENDBRANCH   2   7
TORSDOF 2
ENDMDL
MODEL      160
REMARK 921   NORMALIZED FREE ENERGY PREDICTED BY IDOCK:   -3.21 KCAL/MOL
REMARK 922        TOTAL FREE ENERGY PREDICTED BY IDOCK:   -3.99 KCAL/MOL
REMARK 923 INTER-LIGAND FREE ENERGY PREDICTED BY IDOCK:   -3.80 KCAL/MOL
REMARK 924 INTRA-LIGAND FREE ENERGY PREDICTED BY IDOCK:   -0.19 KCAL/MOL
REMARK 927      BINDING AFFINITY PREDICTED BY RF-SCORE:    0.00 PKD
ROOT
HETATM    1  N   UNL     1      -8.802   8.239  69.199  1.00  0.00    -0.143 N  
HETATM    2  S   UNL     1      -9.528   9.758  69.282  1.00  0.00    -0.207 S  
HETATM    3  H1  UNL     1      -8.332   8.223  68.294  1.00  0.00     0.000 HD 
HETATM    4  H2  UNL     1      -8.826   7.500  69.900  1.00  0.00     0.000 HD 
HETATM    5  O   UNL     1     -10.192   9.781  70.564  1.00  0.00    -0.274 OA 
HETATM    6  O   UNL     1      -8.453  10.667  68.955  1.00  0.00    -0.139 OA 
ENDROOT
BRANCH   2   7
HETATM    7  C   UNL     1     -10.714   9.672  67.938  1.00  0.00    -0.247 C  
BRANCH   7   8
HETATM    8  C   UNL     1     -10.842  10.954  67.200  1.00  0.00    -0.280 A  
HETATM    9  N   UNL     1     -10.582  10.977  65.883  1.00  0.00    -0.237 NA 
HETATM   10  O   UNL     1     -10.750  12.290  65.483  1.00  0.00    -0.263 OA 
HETATM   11  C   UNL     1     -11.082  13.053  66.555  1.00  0.00    -0.288 A  
HETATM   12  C   UNL     1     -11.327  14.423  66.541  1.00  0.00    -0.353 A  
HETATM   13  C   UNL     1     -11.655  15.009  67.768  1.00  0.00    -0.336 A  
HETATM   14  C   UNL     1     -11.717  14.245  68.936  1.00  0.00    -0.363 A  
HETATM   15  C   UNL     1     -11.456  12.866  68.914  1.00  0.00    -0.350 A  
HETATM   16  C   UNL     1     -11.145  12.256  67.687  1.00  0.00    -0.318 A  
ENDBRANCH   7   8
ENDBRANCH   2   7
TORSDOF 2
ENDMDL
MODEL      161
REMARK 921   NORMALIZED FREE ENERGY PREDICTED BY IDOCK:   -3.21 KCAL/MOL
REMARK 922        TOTAL FREE ENERGY PREDICTED BY IDOCK:   -3.98 KCAL/MOL
REMARK 923 INTER-LIGAND FREE ENERGY PREDICTED BY IDOCK:   -3.55 KCAL/MOL
REMARK 924 INTRA-LIGAND FREE ENERGY PREDICTED BY IDOCK:   -0.43 KCAL/MOL
REMARK 927      BINDING AFFINITY PREDICTED BY RF-SCORE:    0.00 PKD
ROOT
HETATM    1  N   UNL     1     -10.863   7.223  73.908  1.00  0.00    -0.392 N  
HETATM    2  S   UNL     1     -10.869   5.712  73.163  1.00  0.00    -0.290 S  
HETATM    3  H1  UNL     1     -11.027   7.888  73.152  1.00  0.00     0.000 HD 
HETATM    4  H2  UNL     1     -10.727   7.427  74.898  1.00  0.00     0.000 HD 
HETATM    5  O   UNL     1     -10.638   4.770  74.233  1.00  0.00    -0.272 OA 
HETATM    6  O   UNL     1     -12.091   5.717  72.392  1.00  0.00    -0.204 OA 
ENDROOT
BRANCH   2   7
HETATM    7  C   UNL     1      -9.441   5.829  72.081  1.00  0.00    -0.149 C  
BRANCH   7   8
HETATM    8  C   UNL     1      -9.589   6.881  71.045  1.00  0.00    -0.170 A  
HETATM    9  N   UNL     1      -9.306   8.155  71.364  1.00  0.00    -0.147 NA 
HETATM   10  O   UNL     1      -9.564   8.899  70.227  1.00  0.00    -0.168 OA 
HETATM   11  C   UNL     1     -10.021   8.084  69.243  1.00  0.00    -0.191 A  
HETATM   12  C   UNL     1     -10.387   8.475  67.958  1.00  0.00    -0.272 A  
HETATM   13  C   UNL     1     -10.833   7.462  67.103  1.00  0.00    -0.340 A  
HETATM   14  C   UNL     1     -10.911   6.137  67.537  1.00  0.00    -0.422 A  
HETATM   15  C   UNL     1     -10.540   5.779  68.842  1.00  0.00    -0.337 A  
HETATM   16  C   UNL     1     -10.070   6.780  69.710  1.00  0.00    -0.198 A  
ENDBRANCH   7   8
ENDBRANCH   2   7
TORSDOF 2
ENDMDL
MODEL      162
REMARK 921   NORMALIZED FREE ENERGY PREDICTED BY IDOCK:   -3.21 KCAL/MOL
REMARK 922        TOTAL FREE ENERGY PREDICTED BY IDOCK:   -3.98 KCAL/MOL
REMARK 923 INTER-LIGAND FREE ENERGY PREDICTED BY IDOCK:   -3.57 KCAL/MOL
REMARK 924 INTRA-LIGAND FREE ENERGY PREDICTED BY IDOCK:   -0.41 KCAL/MOL
REMARK 927      BINDING AFFINITY PREDICTED BY RF-SCORE:    0.00 PKD
ROOT
HETATM    1  N   UNL     1     -13.961   8.043  71.150  1.00  0.00    -0.615 N  
HETATM    2  S   UNL     1     -12.698   8.962  71.781  1.00  0.00    -0.389 S  
HETATM    3  H1  UNL     1     -13.601   7.089  71.117  1.00  0.00     0.000 HD 
HETATM    4  H2  UNL     1     -14.884   8.369  70.863  1.00  0.00     0.000 HD 
HETATM    5  O   UNL     1     -13.209  10.311  71.828  1.00  0.00    -0.413 OA 
HETATM    6  O   UNL     1     -12.317   8.241  72.975  1.00  0.00    -0.205 OA 
ENDROOT
BRANCH   2   7
HETATM    7  C   UNL     1     -11.443   8.785  70.510  1.00  0.00    -0.196 C  
BRANCH   7   8
HETATM    8  C   UNL     1     -10.818   7.439  70.501  1.00  0.00    -0.243 A  
HETATM    9  N   UNL     1     -11.449   6.431  69.875  1.00  0.00    -0.429 NA 
HETATM   10  O   UNL     1     -10.658   5.312  70.059  1.00  0.00    -0.302 OA 
HETATM   11  C   UNL     1      -9.576   5.639  70.811  1.00  0.00    -0.169 A  
HETATM   12  C   UNL     1      -8.560   4.772  71.203  1.00  0.00    -0.126 A  
HETATM   13  C   UNL     1      -7.537   5.325  71.980  1.00  0.00    -0.098 A  
HETATM   14  C   UNL     1      -7.556   6.675  72.340  1.00  0.00    -0.094 A  
HETATM   15  C   UNL     1      -8.601   7.518  71.932  1.00  0.00    -0.122 A  
HETATM   16  C   UNL     1      -9.628   6.985  71.134  1.00  0.00    -0.165 A  
ENDBRANCH   7   8
ENDBRANCH   2   7
TORSDOF 2
ENDMDL
MODEL      163
REMARK 921   NORMALIZED FREE ENERGY PREDICTED BY IDOCK:   -3.20 KCAL/MOL
REMARK 922        TOTAL FREE ENERGY PREDICTED BY IDOCK:   -3.98 KCAL/MOL
REMARK 923 INTER-LIGAND FREE ENERGY PREDICTED BY IDOCK:   -3.58 KCAL/MOL
REMARK 924 INTRA-LIGAND FREE ENERGY PREDICTED BY IDOCK:   -0.39 KCAL/MOL
REMARK 927      BINDING AFFINITY PREDICTED BY RF-SCORE:    0.00 PKD
ROOT
HETATM    1  N   UNL     1      -9.812  11.663  69.098  1.00  0.00    -0.410 N  
HETATM    2  S   UNL     1     -11.307  10.887  69.160  1.00  0.00    -0.310 S  
HETATM    3  H1  UNL     1      -9.261  11.117  68.436  1.00  0.00     0.000 HD 
HETATM    4  H2  UNL     1      -9.523  12.496  69.610  1.00  0.00     0.000 HD 
HETATM    5  O   UNL     1     -12.087  11.660  70.098  1.00  0.00    -0.322 OA 
HETATM    6  O   UNL     1     -11.681  10.756  67.771  1.00  0.00    -0.547 OA 
ENDROOT
BRANCH   2   7
HETATM    7  C   UNL     1     -10.863   9.288  69.847  1.00  0.00    -0.234 C  
BRANCH   7   8
HETATM    8  C   UNL     1      -9.841   8.578  69.038  1.00  0.00    -0.183 A  
HETATM    9  N   UNL     1      -8.567   9.001  69.081  1.00  0.00    -0.131 NA 
HETATM   10  O   UNL     1      -7.864   8.182  68.217  1.00  0.00    -0.117 OA 
HETATM   11  C   UNL     1      -8.712   7.294  67.640  1.00  0.00    -0.125 A  
HETATM   12  C   UNL     1      -8.367   6.314  66.713  1.00  0.00    -0.110 A  
HETATM   13  C   UNL     1      -9.408   5.504  66.248  1.00  0.00    -0.166 A  
HETATM   14  C   UNL     1     -10.719   5.691  66.693  1.00  0.00    -0.339 A  
HETATM   15  C   UNL     1     -11.032   6.694  67.623  1.00  0.00    -0.392 A  
HETATM   16  C   UNL     1      -9.996   7.505  68.118  1.00  0.00    -0.198 A  
ENDBRANCH   7   8
ENDBRANCH   2   7
TORSDOF 2
ENDMDL
MODEL      164
REMARK 921   NORMALIZED FREE ENERGY PREDICTED BY IDOCK:   -3.19 KCAL/MOL
REMARK 922        TOTAL FREE ENERGY PREDICTED BY IDOCK:   -3.96 KCAL/MOL
REMARK 923 INTER-LIGAND FREE ENERGY PREDICTED BY IDOCK:   -3.61 KCAL/MOL
REMARK 924 INTRA-LIGAND FREE ENERGY PREDICTED BY IDOCK:   -0.35 KCAL/MOL
REMARK 927      BINDING AFFINITY PREDICTED BY RF-SCORE:    0.00 PKD
ROOT
HETATM    1  N   UNL     1      -9.485   7.863  65.903  1.00  0.00    -0.423 N  
HETATM    2  S   UNL     1      -9.410   6.436  66.795  1.00  0.00    -0.151 S  
HETATM    3  H1  UNL     1      -9.438   8.609  66.597  1.00  0.00     0.000 HD 
HETATM    4  H2  UNL     1      -9.559   7.960  64.891  1.00  0.00     0.000 HD 
HETATM    5  O   UNL     1      -9.475   5.380  65.812  1.00  0.00    -0.154 OA 
HETATM    6  O   UNL     1      -8.257   6.626  67.646  1.00  0.00    -0.120 OA 
ENDROOT
BRANCH   2   7
HETATM    7  C   UNL     1     -10.924   6.523  67.757  1.00  0.00    -0.316 C  
BRANCH   7   8
HETATM    8  C   UNL     1     -10.784   7.357  68.976  1.00  0.00    -0.148 A  
HETATM    9  N   UNL     1     -10.520   8.667  68.843  1.00  0.00    -0.212 NA 
HETATM   10  O   UNL     1     -10.415   9.168  70.127  1.00  0.00    -0.197 OA 
HETATM   11  C   UNL     1     -10.588   8.164  71.023  1.00  0.00    -0.210 A  
HETATM   12  C   UNL     1     -10.548   8.286  72.409  1.00  0.00    -0.408 A  
HETATM   13  C   UNL     1     -10.754   7.113  73.143  1.00  0.00    -0.385 A  
HETATM   14  C   UNL     1     -10.975   5.892  72.501  1.00  0.00    -0.307 A  
HETATM   15  C   UNL     1     -11.002   5.805  71.101  1.00  0.00    -0.295 A  
HETATM   16  C   UNL     1     -10.817   6.976  70.346  1.00  0.00    -0.283 A  
ENDBRANCH   7   8
ENDBRANCH   2   7
TORSDOF 2
ENDMDL
MODEL      165
REMARK 921   NORMALIZED FREE ENERGY PREDICTED BY IDOCK:   -3.17 KCAL/MOL
REMARK 922        TOTAL FREE ENERGY PREDICTED BY IDOCK:   -3.94 KCAL/MOL
REMARK 923 INTER-LIGAND FREE ENERGY PREDICTED BY IDOCK:   -3.76 KCAL/MOL
REMARK 924 INTRA-LIGAND FREE ENERGY PREDICTED BY IDOCK:   -0.18 KCAL/MOL
REMARK 927      BINDING AFFINITY PREDICTED BY RF-SCORE:    0.00 PKD
ROOT
HETATM    1  N   UNL     1     -11.966   7.246  72.993  1.00  0.00    -0.385 N  
HETATM    2  S   UNL     1     -12.676   7.789  71.564  1.00  0.00    -0.317 S  
HETATM    3  H1  UNL     1     -12.424   7.780  73.732  1.00  0.00     0.000 HD 
HETATM    4  H2  UNL     1     -11.239   6.539  73.096  1.00  0.00     0.000 HD 
HETATM    5  O   UNL     1     -12.028   7.033  70.518  1.00  0.00    -0.325 OA 
HETATM    6  O   UNL     1     -14.093   7.682  71.827  1.00  0.00    -0.386 OA 
ENDROOT
BRANCH   2   7
HETATM    7  C   UNL     1     -12.169   9.511  71.532  1.00  0.00    -0.386 C  
BRANCH   7   8
HETATM    8  C   UNL     1     -10.915   9.727  70.768  1.00  0.00    -0.336 A  
HETATM    9  N   UNL     1     -10.972  10.375  69.593  1.00  0.00    -0.258 NA 
HETATM   10  O   UNL     1      -9.677  10.397  69.107  1.00  0.00    -0.201 OA 
HETATM   11  C   UNL     1      -8.857   9.746  69.969  1.00  0.00    -0.215 A  
HETATM   12  C   UNL     1      -7.485   9.561  69.813  1.00  0.00    -0.098 A  
HETATM   13  C   UNL     1      -6.834   8.856  70.830  1.00  0.00    -0.076 A  
HETATM   14  C   UNL     1      -7.540   8.361  71.929  1.00  0.00    -0.146 A  
HETATM   15  C   UNL     1      -8.924   8.560  72.049  1.00  0.00    -0.301 A  
HETATM   16  C   UNL     1      -9.593   9.283  71.048  1.00  0.00    -0.329 A  
ENDBRANCH   7   8
ENDBRANCH   2   7
TORSDOF 2
ENDMDL
MODEL      166
REMARK 921   NORMALIZED FREE ENERGY PREDICTED BY IDOCK:   -3.17 KCAL/MOL
REMARK 922        TOTAL FREE ENERGY PREDICTED BY IDOCK:   -3.94 KCAL/MOL
REMARK 923 INTER-LIGAND FREE ENERGY PREDICTED BY IDOCK:   -3.56 KCAL/MOL
REMARK 924 INTRA-LIGAND FREE ENERGY PREDICTED BY IDOCK:   -0.38 KCAL/MOL
REMARK 927      BINDING AFFINITY PREDICTED BY RF-SCORE:    0.00 PKD
ROOT
HETATM    1  N   UNL     1      -8.742   6.164  66.299  1.00  0.00    -0.138 N  
HETATM    2  S   UNL     1     -10.034   5.547  67.189  1.00  0.00    -0.190 S  
HETATM    3  H1  UNL     1      -7.929   5.638  66.618  1.00  0.00     0.000 HD 
HETATM    4  H2  UNL     1      -8.769   6.901  65.595  1.00  0.00     0.000 HD 
HETATM    5  O   UNL     1     -11.185   6.291  66.736  1.00  0.00    -0.310 OA 
HETATM    6  O   UNL     1      -9.920   4.118  67.007  1.00  0.00    -0.198 OA 
ENDROOT
BRANCH   2   7
HETATM    7  C   UNL     1      -9.580   6.007  68.864  1.00  0.00    -0.126 C  
BRANCH   7   8
HETATM    8  C   UNL     1      -9.942   7.408  69.194  1.00  0.00    -0.173 A  
HETATM    9  N   UNL     1      -9.251   8.411  68.626  1.00  0.00    -0.143 NA 
HETATM   10  O   UNL     1      -9.784   9.579  69.139  1.00  0.00    -0.166 OA 
HETATM   11  C   UNL     1     -10.767   9.280  70.025  1.00  0.00    -0.232 A  
HETATM   12  C   UNL     1     -11.530  10.198  70.743  1.00  0.00    -0.442 A  
HETATM   13  C   UNL     1     -12.494   9.665  71.605  1.00  0.00    -0.494 A  
HETATM   14  C   UNL     1     -12.661   8.284  71.733  1.00  0.00    -0.364 A  
HETATM   15  C   UNL     1     -11.869   7.388  70.998  1.00  0.00    -0.336 A  
HETATM   16  C   UNL     1     -10.908   7.904  70.112  1.00  0.00    -0.243 A  
ENDBRANCH   7   8
ENDBRANCH   2   7
TORSDOF 2
ENDMDL
MODEL      167
REMARK 921   NORMALIZED FREE ENERGY PREDICTED BY IDOCK:   -3.16 KCAL/MOL
REMARK 922        TOTAL FREE ENERGY PREDICTED BY IDOCK:   -3.93 KCAL/MOL
REMARK 923 INTER-LIGAND FREE ENERGY PREDICTED BY IDOCK:   -3.52 KCAL/MOL
REMARK 924 INTRA-LIGAND FREE ENERGY PREDICTED BY IDOCK:   -0.41 KCAL/MOL
REMARK 927      BINDING AFFINITY PREDICTED BY RF-SCORE:    0.00 PKD
ROOT
HETATM    1  N   UNL     1     -11.112   9.475  67.622  1.00  0.00    -0.462 N  
HETATM    2  S   UNL     1      -9.939  10.149  68.627  1.00  0.00    -0.179 S  
HETATM    3  H1  UNL     1     -10.642   8.701  67.153  1.00  0.00     0.000 HD 
HETATM    4  H2  UNL     1     -12.080   9.776  67.508  1.00  0.00     0.000 HD 
HETATM    5  O   UNL     1     -10.604  11.244  69.291  1.00  0.00    -0.212 OA 
HETATM    6  O   UNL     1      -9.417   9.012  69.351  1.00  0.00    -0.154 OA 
ENDROOT
BRANCH   2   7
HETATM    7  C   UNL     1      -8.734  10.746  67.437  1.00  0.00    -0.126 C  
BRANCH   7   8
HETATM    8  C   UNL     1      -9.300  11.742  66.495  1.00  0.00    -0.210 A  
HETATM    9  N   UNL     1      -9.731  11.330  65.291  1.00  0.00    -0.230 NA 
HETATM   10  O   UNL     1     -10.168  12.465  64.633  1.00  0.00    -0.291 OA 
HETATM   11  C   UNL     1      -9.977  13.551  65.423  1.00  0.00    -0.199 A  
HETATM   12  C   UNL     1     -10.294  14.867  65.097  1.00  0.00    -0.431 A  
HETATM   13  C   UNL     1     -10.011  15.833  66.068  1.00  0.00    -0.358 A  
HETATM   14  C   UNL     1      -9.431  15.479  67.288  1.00  0.00    -0.218 A  
HETATM   15  C   UNL     1      -9.118  14.142  67.580  1.00  0.00    -0.194 A  
HETATM   16  C   UNL     1      -9.414  13.154  66.625  1.00  0.00    -0.260 A  
ENDBRANCH   7   8
ENDBRANCH   2   7
TORSDOF 2
ENDMDL
MODEL      168
REMARK 921   NORMALIZED FREE ENERGY PREDICTED BY IDOCK:   -3.15 KCAL/MOL
REMARK 922        TOTAL FREE ENERGY PREDICTED BY IDOCK:   -3.92 KCAL/MOL
REMARK 923 INTER-LIGAND FREE ENERGY PREDICTED BY IDOCK:   -3.51 KCAL/MOL
REMARK 924 INTRA-LIGAND FREE ENERGY PREDICTED BY IDOCK:   -0.41 KCAL/MOL
REMARK 927      BINDING AFFINITY PREDICTED BY RF-SCORE:    0.00 PKD
ROOT
HETATM    1  N   UNL     1      -8.468  18.944  68.196  1.00  0.00    -0.299 N  
HETATM    2  S   UNL     1      -9.924  18.184  67.817  1.00  0.00    -0.345 S  
HETATM    3  H1  UNL     1      -8.249  19.512  67.378  1.00  0.00     0.000 HD 
HETATM    4  H2  UNL     1      -7.926  18.855  69.055  1.00  0.00     0.000 HD 
HETATM    5  O   UNL     1     -10.235  17.380  68.976  1.00  0.00    -0.330 OA 
HETATM    6  O   UNL     1     -10.773  19.271  67.384  1.00  0.00    -0.463 OA 
ENDROOT
BRANCH   2   7
HETATM    7  C   UNL     1      -9.452  17.158  66.422  1.00  0.00    -0.269 C  
BRANCH   7   8
HETATM    8  C   UNL     1      -8.448  16.126  66.780  1.00  0.00    -0.254 A  
HETATM    9  N   UNL     1      -7.143  16.407  66.628  1.00  0.00    -0.194 NA 
HETATM   10  O   UNL     1      -6.461  15.264  67.005  1.00  0.00    -0.250 OA 
HETATM   11  C   UNL     1      -7.348  14.299  67.354  1.00  0.00    -0.128 A  
HETATM   12  C   UNL     1      -7.032  13.013  67.785  1.00  0.00    -0.143 A  
HETATM   13  C   UNL     1      -8.112  12.179  68.094  1.00  0.00    -0.161 A  
HETATM   14  C   UNL     1      -9.429  12.626  67.961  1.00  0.00    -0.209 A  
HETATM   15  C   UNL     1      -9.709  13.927  67.516  1.00  0.00    -0.232 A  
HETATM   16  C   UNL     1      -8.638  14.788  67.220  1.00  0.00    -0.230 A  
ENDBRANCH   7   8
ENDBRANCH   2   7
TORSDOF 2
ENDMDL
MODEL      169
REMARK 921   NORMALIZED FREE ENERGY PREDICTED BY IDOCK:   -3.15 KCAL/MOL
REMARK 922        TOTAL FREE ENERGY PREDICTED BY IDOCK:   -3.91 KCAL/MOL
REMARK 923 INTER-LIGAND FREE ENERGY PREDICTED BY IDOCK:   -3.50 KCAL/MOL
REMARK 924 INTRA-LIGAND FREE ENERGY PREDICTED BY IDOCK:   -0.41 KCAL/MOL
REMARK 927      BINDING AFFINITY PREDICTED BY RF-SCORE:    0.00 PKD
ROOT
HETATM    1  N   UNL     1     -11.374   9.523  69.501  1.00  0.00    -0.438 N  
HETATM    2  S   UNL     1     -11.284   8.776  71.009  1.00  0.00    -0.289 S  
HETATM    3  H1  UNL     1     -12.372   9.597  69.304  1.00  0.00     0.000 HD 
HETATM    4  H2  UNL     1     -10.600   9.833  68.914  1.00  0.00     0.000 HD 
HETATM    5  O   UNL     1      -9.871   8.671  71.287  1.00  0.00    -0.195 OA 
HETATM    6  O   UNL     1     -12.175   9.563  71.831  1.00  0.00    -0.374 OA 
ENDROOT
BRANCH   2   7
HETATM    7  C   UNL     1     -12.001   7.166  70.665  1.00  0.00    -0.269 C  
BRANCH   7   8
HETATM    8  C   UNL     1     -11.171   6.352  69.743  1.00  0.00    -0.419 A  
HETATM    9  N   UNL     1     -11.297   6.537  68.418  1.00  0.00    -0.175 NA 
HETATM   10  O   UNL     1     -10.436   5.632  67.823  1.00  0.00    -0.208 OA 
HETATM   11  C   UNL     1      -9.820   4.893  68.780  1.00  0.00    -0.161 A  
HETATM   12  C   UNL     1      -8.888   3.882  68.561  1.00  0.00    -0.148 A  
HETATM   13  C   UNL     1      -8.378   3.250  69.700  1.00  0.00    -0.081 A  
HETATM   14  C   UNL     1      -8.802   3.619  70.979  1.00  0.00    -0.136 A  
HETATM   15  C   UNL     1      -9.748   4.639  71.161  1.00  0.00    -0.252 A  
HETATM   16  C   UNL     1     -10.258   5.300  70.031  1.00  0.00    -0.358 A  
ENDBRANCH   7   8
ENDBRANCH   2   7
TORSDOF 2
ENDMDL
MODEL      170
REMARK 921   NORMALIZED FREE ENERGY PREDICTED BY IDOCK:   -3.11 KCAL/MOL
REMARK 922        TOTAL FREE ENERGY PREDICTED BY IDOCK:   -3.87 KCAL/MOL
REMARK 923 INTER-LIGAND FREE ENERGY PREDICTED BY IDOCK:   -3.43 KCAL/MOL
REMARK 924 INTRA-LIGAND FREE ENERGY PREDICTED BY IDOCK:   -0.43 KCAL/MOL
REMARK 927      BINDING AFFINITY PREDICTED BY RF-SCORE:    0.00 PKD
ROOT
HETATM    1  N   UNL     1     -11.455   6.381  69.021  1.00  0.00    -0.591 N  
HETATM    2  S   UNL     1     -10.213   7.240  68.273  1.00  0.00    -0.185 S  
HETATM    3  H1  UNL     1     -12.219   7.050  69.110  1.00  0.00     0.000 HD 
HETATM    4  H2  UNL     1     -11.444   5.406  69.318  1.00  0.00     0.000 HD 
HETATM    5  O   UNL     1      -9.131   6.293  68.146  1.00  0.00    -0.115 OA 
HETATM    6  O   UNL     1     -10.856   7.834  67.123  1.00  0.00    -0.313 OA 
ENDROOT
BRANCH   2   7
HETATM    7  C   UNL     1      -9.839   8.493  69.503  1.00  0.00    -0.187 C  
BRANCH   7   8
HETATM    8  C   UNL     1     -10.294   8.116  70.865  1.00  0.00    -0.190 A  
HETATM    9  N   UNL     1     -11.486   8.557  71.299  1.00  0.00    -0.266 NA 
HETATM   10  O   UNL     1     -11.622   8.080  72.590  1.00  0.00    -0.388 OA 
HETATM   11  C   UNL     1     -10.511   7.382  72.937  1.00  0.00    -0.295 A  
HETATM   12  C   UNL     1     -10.285   6.757  74.160  1.00  0.00    -0.370 A  
HETATM   13  C   UNL     1      -9.063   6.091  74.301  1.00  0.00    -0.132 A  
HETATM   14  C   UNL     1      -8.129   6.073  73.262  1.00  0.00    -0.115 A  
HETATM   15  C   UNL     1      -8.388   6.721  72.045  1.00  0.00    -0.111 A  
HETATM   16  C   UNL     1      -9.618   7.379  71.876  1.00  0.00    -0.174 A  
ENDBRANCH   7   8
ENDBRANCH   2   7
TORSDOF 2
ENDMDL
MODEL      171
REMARK 921   NORMALIZED FREE ENERGY PREDICTED BY IDOCK:   -3.10 KCAL/MOL
REMARK 922        TOTAL FREE ENERGY PREDICTED BY IDOCK:   -3.86 KCAL/MOL
REMARK 923 INTER-LIGAND FREE ENERGY PREDICTED BY IDOCK:   -3.81 KCAL/MOL
REMARK 924 INTRA-LIGAND FREE ENERGY PREDICTED BY IDOCK:   -0.05 KCAL/MOL
REMARK 927      BINDING AFFINITY PREDICTED BY RF-SCORE:    0.00 PKD
ROOT
HETATM    1  N   UNL     1     -12.182  13.182  68.610  1.00  0.00    -0.164 N  
HETATM    2  S   UNL     1     -10.682  13.919  68.822  1.00  0.00    -0.250 S  
HETATM    3  H1  UNL     1     -12.134  12.750  67.687  1.00  0.00     0.000 HD 
HETATM    4  H2  UNL     1     -12.966  13.169  69.262  1.00  0.00     0.000 HD 
HETATM    5  O   UNL     1     -10.750  14.530  70.128  1.00  0.00    -0.036 OA 
HETATM    6  O   UNL     1      -9.739  12.868  68.511  1.00  0.00    -0.206 OA 
ENDROOT
BRANCH   2   7
HETATM    7  C   UNL     1     -10.694  15.159  67.523  1.00  0.00    -0.284 C  
BRANCH   7   8
HETATM    8  C   UNL     1      -9.635  16.183  67.696  1.00  0.00    -0.222 A  
HETATM    9  N   UNL     1      -8.462  15.822  68.242  1.00  0.00    -0.161 NA 
HETATM   10  O   UNL     1      -7.699  16.974  68.303  1.00  0.00    -0.193 OA 
HETATM   11  C   UNL     1      -8.415  18.020  67.822  1.00  0.00    -0.247 A  
HETATM   12  C   UNL     1      -7.978  19.339  67.728  1.00  0.00    -0.312 A  
HETATM   13  C   UNL     1      -8.888  20.260  67.199  1.00  0.00    -0.446 A  
HETATM   14  C   UNL     1     -10.166  19.861  66.801  1.00  0.00    -0.603 A  
HETATM   15  C   UNL     1     -10.576  18.524  66.916  1.00  0.00    -0.406 A  
HETATM   16  C   UNL     1      -9.669  17.579  67.428  1.00  0.00    -0.274 A  
ENDBRANCH   7   8
ENDBRANCH   2   7
TORSDOF 2
ENDMDL
MODEL      172
REMARK 921   NORMALIZED FREE ENERGY PREDICTED BY IDOCK:   -3.09 KCAL/MOL
REMARK 922        TOTAL FREE ENERGY PREDICTED BY IDOCK:   -3.85 KCAL/MOL
REMARK 923 INTER-LIGAND FREE ENERGY PREDICTED BY IDOCK:   -3.77 KCAL/MOL
REMARK 924 INTRA-LIGAND FREE ENERGY PREDICTED BY IDOCK:   -0.08 KCAL/MOL
REMARK 927      BINDING AFFINITY PREDICTED BY RF-SCORE:    0.00 PKD
ROOT
HETATM    1  N   UNL     1      -9.171   5.003  68.672  1.00  0.00    -0.117 N  
HETATM    2  S   UNL     1      -9.347   4.957  70.347  1.00  0.00    -0.164 S  
HETATM    3  H1  UNL     1      -9.185   5.995  68.434  1.00  0.00     0.000 HD 
HETATM    4  H2  UNL     1      -9.070   4.213  68.035  1.00  0.00     0.000 HD 
HETATM    5  O   UNL     1      -9.326   3.553  70.683  1.00  0.00    -0.130 OA 
HETATM    6  O   UNL     1      -8.340   5.878  70.821  1.00  0.00    -0.121 OA 
ENDROOT
BRANCH   2   7
HETATM    7  C   UNL     1     -10.989   5.651  70.563  1.00  0.00    -0.197 C  
BRANCH   7   8
HETATM    8  C   UNL     1     -11.025   7.119  70.348  1.00  0.00    -0.265 A  
HETATM    9  N   UNL     1     -10.216   7.663  69.423  1.00  0.00    -0.201 NA 
HETATM   10  O   UNL     1     -10.444   9.026  69.470  1.00  0.00    -0.211 OA 
HETATM   11  C   UNL     1     -11.362   9.301  70.431  1.00  0.00    -0.242 A  
HETATM   12  C   UNL     1     -11.841  10.564  70.770  1.00  0.00    -0.465 A  
HETATM   13  C   UNL     1     -12.789  10.614  71.797  1.00  0.00    -0.549 A  
HETATM   14  C   UNL     1     -13.212   9.450  72.444  1.00  0.00    -0.483 A  
HETATM   15  C   UNL     1     -12.702   8.194  72.080  1.00  0.00    -0.332 A  
HETATM   16  C   UNL     1     -11.763   8.120  71.037  1.00  0.00    -0.295 A  
ENDBRANCH   7   8
ENDBRANCH   2   7
TORSDOF 2
ENDMDL
MODEL      173
REMARK 921   NORMALIZED FREE ENERGY PREDICTED BY IDOCK:   -3.08 KCAL/MOL
REMARK 922        TOTAL FREE ENERGY PREDICTED BY IDOCK:   -3.84 KCAL/MOL
REMARK 923 INTER-LIGAND FREE ENERGY PREDICTED BY IDOCK:   -3.61 KCAL/MOL
REMARK 924 INTRA-LIGAND FREE ENERGY PREDICTED BY IDOCK:   -0.23 KCAL/MOL
REMARK 927      BINDING AFFINITY PREDICTED BY RF-SCORE:    0.00 PKD
ROOT
HETATM    1  N   UNL     1      -9.163  11.671  64.443  1.00  0.00    -0.421 N  
HETATM    2  S   UNL     1      -8.865  10.669  65.766  1.00  0.00    -0.189 S  
HETATM    3  H1  UNL     1      -9.366  12.585  64.848  1.00  0.00     0.000 HD 
HETATM    4  H2  UNL     1      -9.145  11.418  63.456  1.00  0.00     0.000 HD 
HETATM    5  O   UNL     1      -8.578   9.375  65.193  1.00  0.00    -0.146 OA 
HETATM    6  O   UNL     1      -7.888  11.405  66.536  1.00  0.00    -0.153 OA 
ENDROOT
BRANCH   2   7
HETATM    7  C   UNL     1     -10.456  10.674  66.597  1.00  0.00    -0.237 C  
BRANCH   7   8
HETATM    8  C   UNL     1     -10.459   9.862  67.839  1.00  0.00    -0.236 A  
HETATM    9  N   UNL     1     -10.351  10.485  69.025  1.00  0.00    -0.200 NA 
HETATM   10  O   UNL     1     -10.350   9.487  69.981  1.00  0.00    -0.212 OA 
HETATM   11  C   UNL     1     -10.430   8.276  69.375  1.00  0.00    -0.220 A  
HETATM   12  C   UNL     1     -10.451   7.039  70.015  1.00  0.00    -0.233 A  
HETATM   13  C   UNL     1     -10.537   5.914  69.190  1.00  0.00    -0.369 A  
HETATM   14  C   UNL     1     -10.588   6.043  67.799  1.00  0.00    -0.337 A  
HETATM   15  C   UNL     1     -10.557   7.305  67.188  1.00  0.00    -0.416 A  
HETATM   16  C   UNL     1     -10.490   8.450  68.002  1.00  0.00    -0.242 A  
ENDBRANCH   7   8
ENDBRANCH   2   7
TORSDOF 2
ENDMDL
MODEL      174
REMARK 921   NORMALIZED FREE ENERGY PREDICTED BY IDOCK:   -3.07 KCAL/MOL
REMARK 922        TOTAL FREE ENERGY PREDICTED BY IDOCK:   -3.82 KCAL/MOL
REMARK 923 INTER-LIGAND FREE ENERGY PREDICTED BY IDOCK:   -3.78 KCAL/MOL
REMARK 924 INTRA-LIGAND FREE ENERGY PREDICTED BY IDOCK:   -0.04 KCAL/MOL
REMARK 927      BINDING AFFINITY PREDICTED BY RF-SCORE:    0.00 PKD
ROOT
HETATM    1  N   UNL     1      -9.751  10.148  70.263  1.00  0.00    -0.387 N  
HETATM    2  S   UNL     1     -10.810  10.348  68.968  1.00  0.00    -0.250 S  
HETATM    3  H1  UNL     1      -9.691  11.069  70.697  1.00  0.00     0.000 HD 
HETATM    4  H2  UNL     1      -9.274   9.293  70.550  1.00  0.00     0.000 HD 
HETATM    5  O   UNL     1     -10.895   9.044  68.354  1.00  0.00    -0.136 OA 
HETATM    6  O   UNL     1     -11.957  10.994  69.564  1.00  0.00    -0.301 OA 
ENDROOT
BRANCH   2   7
HETATM    7  C   UNL     1      -9.907  11.498  67.928  1.00  0.00    -0.185 C  
BRANCH   7   8
HETATM    8  C   UNL     1     -10.586  12.812  67.799  1.00  0.00    -0.221 A  
HETATM    9  N   UNL     1     -11.745  12.883  67.123  1.00  0.00    -0.365 NA 
HETATM   10  O   UNL     1     -12.116  14.215  67.143  1.00  0.00    -0.426 OA 
HETATM   11  C   UNL     1     -11.177  14.940  67.800  1.00  0.00    -0.321 A  
HETATM   12  C   UNL     1     -11.207  16.315  68.018  1.00  0.00    -0.260 A  
HETATM   13  C   UNL     1     -10.128  16.856  68.723  1.00  0.00    -0.295 A  
HETATM   14  C   UNL     1      -9.080  16.047  69.168  1.00  0.00    -0.246 A  
HETATM   15  C   UNL     1      -9.079  14.665  68.924  1.00  0.00    -0.148 A  
HETATM   16  C   UNL     1     -10.165  14.098  68.234  1.00  0.00    -0.243 A  
ENDBRANCH   7   8
ENDBRANCH   2   7
TORSDOF 2
ENDMDL
MODEL      175
REMARK 921   NORMALIZED FREE ENERGY PREDICTED BY IDOCK:   -3.04 KCAL/MOL
REMARK 922        TOTAL FREE ENERGY PREDICTED BY IDOCK:   -3.80 KCAL/MOL
REMARK 923 INTER-LIGAND FREE ENERGY PREDICTED BY IDOCK:   -3.58 KCAL/MOL
REMARK 924 INTRA-LIGAND FREE ENERGY PREDICTED BY IDOCK:   -0.22 KCAL/MOL
REMARK 927      BINDING AFFINITY PREDICTED BY RF-SCORE:    0.00 PKD
ROOT
HETATM    1  N   UNL     1     -11.508   6.560  68.963  1.00  0.00    -0.615 N  
HETATM    2  S   UNL     1     -10.294   7.530  68.310  1.00  0.00    -0.182 S  
HETATM    3  H1  UNL     1     -12.368   7.093  68.833  1.00  0.00     0.000 HD 
HETATM    4  H2  UNL     1     -11.406   5.642  69.393  1.00  0.00     0.000 HD 
HETATM    5  O   UNL     1      -9.078   6.774  68.494  1.00  0.00    -0.131 OA 
HETATM    6  O   UNL     1     -10.799   7.870  66.999  1.00  0.00    -0.305 OA 
ENDROOT
BRANCH   2   7
HETATM    7  C   UNL     1     -10.342   8.960  69.394  1.00  0.00    -0.213 C  
BRANCH   7   8
HETATM    8  C   UNL     1      -9.712  10.160  68.791  1.00  0.00    -0.172 A  
HETATM    9  N   UNL     1      -8.377  10.296  68.852  1.00  0.00    -0.127 NA 
HETATM   10  O   UNL     1      -8.089  11.505  68.246  1.00  0.00    -0.133 OA 
HETATM   11  C   UNL     1      -9.241  12.102  67.849  1.00  0.00    -0.188 A  
HETATM   12  C   UNL     1      -9.348  13.332  67.206  1.00  0.00    -0.226 A  
HETATM   13  C   UNL     1     -10.642  13.756  66.887  1.00  0.00    -0.276 A  
HETATM   14  C   UNL     1     -11.755  12.979  67.214  1.00  0.00    -0.429 A  
HETATM   15  C   UNL     1     -11.611  11.747  67.870  1.00  0.00    -0.377 A  
HETATM   16  C   UNL     1     -10.317  11.294  68.181  1.00  0.00    -0.205 A  
ENDBRANCH   7   8
ENDBRANCH   2   7
TORSDOF 2
ENDMDL
MODEL      176
REMARK 921   NORMALIZED FREE ENERGY PREDICTED BY IDOCK:   -3.01 KCAL/MOL
REMARK 922        TOTAL FREE ENERGY PREDICTED BY IDOCK:   -3.76 KCAL/MOL
REMARK 923 INTER-LIGAND FREE ENERGY PREDICTED BY IDOCK:   -3.58 KCAL/MOL
REMARK 924 INTRA-LIGAND FREE ENERGY PREDICTED BY IDOCK:   -0.18 KCAL/MOL
REMARK 927      BINDING AFFINITY PREDICTED BY RF-SCORE:    0.00 PKD
ROOT
HETATM    1  N   UNL     1     -11.235   7.582  69.167  1.00  0.00    -0.424 N  
HETATM    2  S   UNL     1     -11.545   7.749  70.815  1.00  0.00    -0.214 S  
HETATM    3  H1  UNL     1     -11.167   6.576  69.014  1.00  0.00     0.000 HD 
HETATM    4  H2  UNL     1     -11.136   8.324  68.475  1.00  0.00     0.000 HD 
HETATM    5  O   UNL     1     -11.640   9.173  71.031  1.00  0.00    -0.276 OA 
HETATM    6  O   UNL     1     -12.660   6.859  71.043  1.00  0.00    -0.374 OA 
ENDROOT
BRANCH   2   7
HETATM    7  C   UNL     1     -10.045   7.081  71.541  1.00  0.00    -0.187 C  
BRANCH   7   8
HETATM    8  C   UNL     1     -10.300   5.903  72.407  1.00  0.00    -0.197 A  
HETATM    9  N   UNL     1     -10.711   6.100  73.671  1.00  0.00    -0.255 NA 
HETATM   10  O   UNL     1     -10.833   4.843  74.233  1.00  0.00    -0.320 OA 
HETATM   11  C   UNL     1     -10.475   3.901  73.324  1.00  0.00    -0.177 A  
HETATM   12  C   UNL     1     -10.468   2.524  73.530  1.00  0.00    -0.230 A  
HETATM   13  C   UNL     1     -10.060   1.736  72.449  1.00  0.00    -0.218 A  
HETATM   14  C   UNL     1      -9.674   2.318  71.239  1.00  0.00    -0.201 A  
HETATM   15  C   UNL     1      -9.687   3.711  71.070  1.00  0.00    -0.243 A  
HETATM   16  C   UNL     1     -10.112   4.519  72.138  1.00  0.00    -0.260 A  
ENDBRANCH   7   8
ENDBRANCH   2   7
TORSDOF 2
ENDMDL
MODEL      177
REMARK 921   NORMALIZED FREE ENERGY PREDICTED BY IDOCK:   -3.00 KCAL/MOL
REMARK 922        TOTAL FREE ENERGY PREDICTED BY IDOCK:   -3.75 KCAL/MOL
REMARK 923 INTER-LIGAND FREE ENERGY PREDICTED BY IDOCK:   -3.58 KCAL/MOL
REMARK 924 INTRA-LIGAND FREE ENERGY PREDICTED BY IDOCK:   -0.17 KCAL/MOL
REMARK 927      BINDING AFFINITY PREDICTED BY RF-SCORE:    0.00 PKD
ROOT
HETATM    1  N   UNL     1     -10.265  19.516  68.086  1.00  0.00    -0.426 N  
HETATM    2  S   UNL     1      -9.567  20.100  66.668  1.00  0.00    -0.410 S  
HETATM    3  H1  UNL     1      -9.494  19.452  68.750  1.00  0.00     0.000 HD 
HETATM    4  H2  UNL     1     -11.244  19.279  68.245  1.00  0.00     0.000 HD 
HETATM    5  O   UNL     1     -10.659  20.192  65.727  1.00  0.00    -0.404 OA 
HETATM    6  O   UNL     1      -8.829  21.263  67.106  1.00  0.00     0.072 OA 
ENDROOT
BRANCH   2   7
HETATM    7  C   UNL     1      -8.445  18.768  66.233  1.00  0.00    -0.241 C  
BRANCH   7   8
HETATM    8  C   UNL     1      -9.024  17.424  66.482  1.00  0.00    -0.260 A  
HETATM    9  N   UNL     1     -10.341  17.237  66.297  1.00  0.00    -0.339 NA 
HETATM   10  O   UNL     1     -10.590  15.919  66.632  1.00  0.00    -0.314 OA 
HETATM   11  C   UNL     1      -9.439  15.328  67.040  1.00  0.00    -0.223 A  
HETATM   12  C   UNL     1      -9.300  14.007  67.457  1.00  0.00    -0.209 A  
HETATM   13  C   UNL     1      -8.014  13.607  67.836  1.00  0.00    -0.161 A  
HETATM   14  C   UNL     1      -6.942  14.502  67.800  1.00  0.00    -0.194 A  
HETATM   15  C   UNL     1      -7.121  15.829  67.380  1.00  0.00    -0.236 A  
HETATM   16  C   UNL     1      -8.402  16.245  66.977  1.00  0.00    -0.237 A  
ENDBRANCH   7   8
ENDBRANCH   2   7
TORSDOF 2
ENDMDL
MODEL      178
REMARK 921   NORMALIZED FREE ENERGY PREDICTED BY IDOCK:   -2.97 KCAL/MOL
REMARK 922        TOTAL FREE ENERGY PREDICTED BY IDOCK:   -3.71 KCAL/MOL
REMARK 923 INTER-LIGAND FREE ENERGY PREDICTED BY IDOCK:   -3.25 KCAL/MOL
REMARK 924 INTRA-LIGAND FREE ENERGY PREDICTED BY IDOCK:   -0.46 KCAL/MOL
REMARK 927      BINDING AFFINITY PREDICTED BY RF-SCORE:    0.00 PKD
ROOT
HETATM    1  N   UNL     1     -11.260   5.546  66.288  1.00  0.00    -0.737 N  
HETATM    2  S   UNL     1      -9.659   5.076  66.522  1.00  0.00    -0.179 S  
HETATM    3  H1  UNL     1     -11.210   6.335  65.644  1.00  0.00     0.000 HD 
HETATM    4  H2  UNL     1     -12.096   5.132  66.700  1.00  0.00     0.000 HD 
HETATM    5  O   UNL     1      -9.730   3.958  67.433  1.00  0.00    -0.198 OA 
HETATM    6  O   UNL     1      -9.144   4.942  65.178  1.00  0.00    -0.155 OA 
ENDROOT
BRANCH   2   7
HETATM    7  C   UNL     1      -8.963   6.524  67.323  1.00  0.00    -0.114 C  
BRANCH   7   8
HETATM    8  C   UNL     1      -9.396   7.795  66.691  1.00  0.00    -0.188 A  
HETATM    9  N   UNL     1     -10.463   8.440  67.190  1.00  0.00    -0.315 NA 
HETATM   10  O   UNL     1     -10.644   9.554  66.391  1.00  0.00    -0.146 OA 
HETATM   11  C   UNL     1      -9.711   9.564  65.406  1.00  0.00    -0.244 A  
HETATM   12  C   UNL     1      -9.580  10.528  64.410  1.00  0.00    -0.357 A  
HETATM   13  C   UNL     1      -8.542  10.338  63.493  1.00  0.00    -0.195 A  
HETATM   14  C   UNL     1      -7.698   9.227  63.581  1.00  0.00    -0.116 A  
HETATM   15  C   UNL     1      -7.864   8.271  64.595  1.00  0.00    -0.132 A  
HETATM   16  C   UNL     1      -8.889   8.455  65.538  1.00  0.00    -0.172 A  
ENDBRANCH   7   8
ENDBRANCH   2   7
TORSDOF 2
ENDMDL
MODEL      179
REMARK 921   NORMALIZED FREE ENERGY PREDICTED BY IDOCK:   -2.96 KCAL/MOL
REMARK 922        TOTAL FREE ENERGY PREDICTED BY IDOCK:   -3.70 KCAL/MOL
REMARK 923 INTER-LIGAND FREE ENERGY PREDICTED BY IDOCK:   -3.51 KCAL/MOL
REMARK 924 INTRA-LIGAND FREE ENERGY PREDICTED BY IDOCK:   -0.20 KCAL/MOL
REMARK 927      BINDING AFFINITY PREDICTED BY RF-SCORE:    0.00 PKD
ROOT
HETATM    1  N   UNL     1      -9.442   7.230  71.085  1.00  0.00    -0.157 N  
HETATM    2  S   UNL     1      -9.647   8.148  69.687  1.00  0.00    -0.168 S  
HETATM    3  H1  UNL     1     -10.173   6.520  71.042  1.00  0.00     0.000 HD 
HETATM    4  H2  UNL     1      -8.739   7.355  71.814  1.00  0.00     0.000 HD 
HETATM    5  O   UNL     1      -8.610   9.151  69.748  1.00  0.00    -0.122 OA 
HETATM    6  O   UNL     1      -9.701   7.159  68.635  1.00  0.00    -0.140 OA 
ENDROOT
BRANCH   2   7
HETATM    7  C   UNL     1     -11.268   8.871  69.957  1.00  0.00    -0.110 C  
BRANCH   7   8
HETATM    8  C   UNL     1     -11.491  10.099  69.154  1.00  0.00    -0.095 A  
HETATM    9  N   UNL     1     -11.330  10.044  67.821  1.00  0.00    -0.172 NA 
HETATM   10  O   UNL     1     -11.571  11.324  67.355  1.00  0.00    -0.519 OA 
HETATM   11  C   UNL     1     -11.847  12.144  68.400  1.00  0.00    -0.303 A  
HETATM   12  C   UNL     1     -12.138  13.503  68.320  1.00  0.00    -0.295 A  
HETATM   13  C   UNL     1     -12.393  14.157  69.529  1.00  0.00    -0.275 A  
HETATM   14  C   UNL     1     -12.344  13.468  70.744  1.00  0.00    -0.440 A  
HETATM   15  C   UNL     1     -12.040  12.099  70.788  1.00  0.00    -0.279 A  
HETATM   16  C   UNL     1     -11.800  11.420  69.581  1.00  0.00    -0.431 A  
ENDBRANCH   7   8
ENDBRANCH   2   7
TORSDOF 2
ENDMDL
MODEL      180
REMARK 921   NORMALIZED FREE ENERGY PREDICTED BY IDOCK:   -2.96 KCAL/MOL
REMARK 922        TOTAL FREE ENERGY PREDICTED BY IDOCK:   -3.70 KCAL/MOL
REMARK 923 INTER-LIGAND FREE ENERGY PREDICTED BY IDOCK:   -3.29 KCAL/MOL
REMARK 924 INTRA-LIGAND FREE ENERGY PREDICTED BY IDOCK:   -0.41 KCAL/MOL
REMARK 927      BINDING AFFINITY PREDICTED BY RF-SCORE:    0.00 PKD
ROOT
HETATM    1  N   UNL     1     -11.782   7.847  73.017  1.00  0.00    -0.579 N  
HETATM    2  S   UNL     1     -12.405   8.540  71.613  1.00  0.00    -0.342 S  
HETATM    3  H1  UNL     1     -10.849   8.248  73.115  1.00  0.00     0.000 HD 
HETATM    4  H2  UNL     1     -12.238   7.175  73.633  1.00  0.00     0.000 HD 
HETATM    5  O   UNL     1     -13.725   7.973  71.474  1.00  0.00    -0.343 OA 
HETATM    6  O   UNL     1     -12.191   9.956  71.808  1.00  0.00    -0.389 OA 
ENDROOT
BRANCH   2   7
HETATM    7  C   UNL     1     -11.288   7.901  70.360  1.00  0.00    -0.194 C  
BRANCH   7   8
HETATM    8  C   UNL     1     -10.059   7.302  70.937  1.00  0.00    -0.188 A  
HETATM    9  N   UNL     1      -9.180   8.099  71.567  1.00  0.00    -0.149 NA 
HETATM   10  O   UNL     1      -8.138   7.280  71.963  1.00  0.00    -0.094 OA 
HETATM   11  C   UNL     1      -8.377   6.010  71.552  1.00  0.00    -0.127 A  
HETATM   12  C   UNL     1      -7.549   4.910  71.765  1.00  0.00    -0.096 A  
HETATM   13  C   UNL     1      -7.995   3.688  71.251  1.00  0.00    -0.060 A  
HETATM   14  C   UNL     1      -9.202   3.598  70.554  1.00  0.00    -0.210 A  
HETATM   15  C   UNL     1     -10.008   4.729  70.352  1.00  0.00    -0.315 A  
HETATM   16  C   UNL     1      -9.587   5.962  70.878  1.00  0.00    -0.202 A  
ENDBRANCH   7   8
ENDBRANCH   2   7
TORSDOF 2
ENDMDL
MODEL      181
REMARK 921   NORMALIZED FREE ENERGY PREDICTED BY IDOCK:   -2.90 KCAL/MOL
REMARK 922        TOTAL FREE ENERGY PREDICTED BY IDOCK:   -3.64 KCAL/MOL
REMARK 923 INTER-LIGAND FREE ENERGY PREDICTED BY IDOCK:   -3.22 KCAL/MOL
REMARK 924 INTRA-LIGAND FREE ENERGY PREDICTED BY IDOCK:   -0.42 KCAL/MOL
REMARK 927      BINDING AFFINITY PREDICTED BY RF-SCORE:    0.00 PKD
ROOT
HETATM    1  N   UNL     1     -12.291   5.977  72.593  1.00  0.00    -0.524 N  
HETATM    2  S   UNL     1     -12.561   7.342  71.643  1.00  0.00    -0.363 S  
HETATM    3  H1  UNL     1     -11.292   5.991  72.795  1.00  0.00     0.000 HD 
HETATM    4  H2  UNL     1     -12.977   5.287  72.899  1.00  0.00     0.000 HD 
HETATM    5  O   UNL     1     -13.976   7.322  71.357  1.00  0.00    -0.398 OA 
HETATM    6  O   UNL     1     -11.943   8.409  72.397  1.00  0.00    -0.372 OA 
ENDROOT
BRANCH   2   7
HETATM    7  C   UNL     1     -11.596   6.967  70.176  1.00  0.00    -0.289 C  
BRANCH   7   8
HETATM    8  C   UNL     1     -10.139   6.896  70.448  1.00  0.00    -0.187 A  
HETATM    9  N   UNL     1      -9.610   5.737  70.872  1.00  0.00    -0.165 NA 
HETATM   10  O   UNL     1      -8.263   5.981  71.069  1.00  0.00    -0.119 OA 
HETATM   11  C   UNL     1      -7.991   7.281  70.792  1.00  0.00    -0.099 A  
HETATM   12  C   UNL     1      -6.743   7.893  70.879  1.00  0.00    -0.037 A  
HETATM   13  C   UNL     1      -6.693   9.250  70.544  1.00  0.00    -0.078 A  
HETATM   14  C   UNL     1      -7.844   9.939  70.155  1.00  0.00    -0.186 A  
HETATM   15  C   UNL     1      -9.087   9.291  70.086  1.00  0.00    -0.248 A  
HETATM   16  C   UNL     1      -9.155   7.922  70.399  1.00  0.00    -0.154 A  
ENDBRANCH   7   8
ENDBRANCH   2   7
TORSDOF 2
ENDMDL
MODEL      182
REMARK 921   NORMALIZED FREE ENERGY PREDICTED BY IDOCK:   -2.88 KCAL/MOL
REMARK 922        TOTAL FREE ENERGY PREDICTED BY IDOCK:   -3.61 KCAL/MOL
REMARK 923 INTER-LIGAND FREE ENERGY PREDICTED BY IDOCK:   -3.26 KCAL/MOL
REMARK 924 INTRA-LIGAND FREE ENERGY PREDICTED BY IDOCK:   -0.35 KCAL/MOL
REMARK 927      BINDING AFFINITY PREDICTED BY RF-SCORE:    0.00 PKD
ROOT
HETATM    1  N   UNL     1     -11.713  11.369  70.452  1.00  0.00    -0.459 N  
HETATM    2  S   UNL     1     -11.043  11.372  68.906  1.00  0.00    -0.255 S  
HETATM    3  H1  UNL     1     -10.939  11.601  71.074  1.00  0.00     0.000 HD 
HETATM    4  H2  UNL     1     -12.681  11.178  70.709  1.00  0.00     0.000 HD 
HETATM    5  O   UNL     1     -12.139  11.044  68.026  1.00  0.00    -0.615 OA 
HETATM    6  O   UNL     1     -10.353  12.640  68.837  1.00  0.00    -0.157 OA 
ENDROOT
BRANCH   2   7
HETATM    7  C   UNL     1      -9.867  10.019  69.012  1.00  0.00    -0.199 C  
BRANCH   7   8
HETATM    8  C   UNL     1     -10.320   8.933  69.916  1.00  0.00    -0.206 A  
HETATM    9  N   UNL     1     -11.502   8.338  69.680  1.00  0.00     0.223 NA 
HETATM   10  O   UNL     1     -11.668   7.405  70.687  1.00  0.00    -0.290 OA 
HETATM   11  C   UNL     1     -10.609   7.457  71.534  1.00  0.00    -0.206 A  
HETATM   12  C   UNL     1     -10.427   6.668  72.667  1.00  0.00    -0.237 A  
HETATM   13  C   UNL     1      -9.256   6.892  73.398  1.00  0.00    -0.170 A  
HETATM   14  C   UNL     1      -8.336   7.867  73.004  1.00  0.00    -0.218 A  
HETATM   15  C   UNL     1      -8.556   8.648  71.859  1.00  0.00    -0.231 A  
HETATM   16  C   UNL     1      -9.717   8.425  71.100  1.00  0.00    -0.236 A  
ENDBRANCH   7   8
ENDBRANCH   2   7
TORSDOF 2
ENDMDL
MODEL      183
REMARK 921   NORMALIZED FREE ENERGY PREDICTED BY IDOCK:   -2.84 KCAL/MOL
REMARK 922        TOTAL FREE ENERGY PREDICTED BY IDOCK:   -3.57 KCAL/MOL
REMARK 923 INTER-LIGAND FREE ENERGY PREDICTED BY IDOCK:   -3.45 KCAL/MOL
REMARK 924 INTRA-LIGAND FREE ENERGY PREDICTED BY IDOCK:   -0.12 KCAL/MOL
REMARK 927      BINDING AFFINITY PREDICTED BY RF-SCORE:    0.00 PKD
ROOT
HETATM    1  N   UNL     1      -8.616  12.147  68.619  1.00  0.00    -0.348 N  
HETATM    2  S   UNL     1      -9.685  13.168  67.811  1.00  0.00    -0.224 S  
HETATM    3  H1  UNL     1      -8.124  11.645  67.880  1.00  0.00     0.000 HD 
HETATM    4  H2  UNL     1      -8.488  12.052  69.626  1.00  0.00     0.000 HD 
HETATM    5  O   UNL     1     -10.382  13.879  68.857  1.00  0.00    -0.225 OA 
HETATM    6  O   UNL     1      -8.848  13.844  66.847  1.00  0.00    -0.231 OA 
ENDROOT
BRANCH   2   7
HETATM    7  C   UNL     1     -10.768  11.994  66.991  1.00  0.00    -0.242 C  
BRANCH   7   8
HETATM    8  C   UNL     1     -10.235  11.535  65.685  1.00  0.00    -0.248 A  
HETATM    9  N   UNL     1     -10.432  12.297  64.596  1.00  0.00    -0.290 NA 
HETATM   10  O   UNL     1      -9.862  11.610  63.541  1.00  0.00    -0.329 OA 
HETATM   11  C   UNL     1      -9.351  10.434  63.986  1.00  0.00    -0.277 A  
HETATM   12  C   UNL     1      -8.703   9.477  63.210  1.00  0.00    -0.238 A  
HETATM   13  C   UNL     1      -8.255   8.334  63.881  1.00  0.00    -0.088 A  
HETATM   14  C   UNL     1      -8.465   8.175  65.253  1.00  0.00    -0.157 A  
HETATM   15  C   UNL     1      -9.129   9.158  66.002  1.00  0.00    -0.245 A  
HETATM   16  C   UNL     1      -9.569  10.323  65.350  1.00  0.00    -0.310 A  
ENDBRANCH   7   8
ENDBRANCH   2   7
TORSDOF 2
ENDMDL
MODEL      184
REMARK 921   NORMALIZED FREE ENERGY PREDICTED BY IDOCK:   -2.84 KCAL/MOL
REMARK 922        TOTAL FREE ENERGY PREDICTED BY IDOCK:   -3.57 KCAL/MOL
REMARK 923 INTER-LIGAND FREE ENERGY PREDICTED BY IDOCK:   -3.34 KCAL/MOL
REMARK 924 INTRA-LIGAND FREE ENERGY PREDICTED BY IDOCK:   -0.23 KCAL/MOL
REMARK 927      BINDING AFFINITY PREDICTED BY RF-SCORE:    0.00 PKD
ROOT
HETATM    1  N   UNL     1      -9.088   8.437  65.322  1.00  0.00    -0.414 N  
HETATM    2  S   UNL     1      -8.779   7.152  66.368  1.00  0.00    -0.143 S  
HETATM    3  H1  UNL     1      -9.447   9.181  65.919  1.00  0.00     0.000 HD 
HETATM    4  H2  UNL     1      -8.946   8.464  64.312  1.00  0.00     0.000 HD 
HETATM    5  O   UNL     1      -8.270   6.099  65.522  1.00  0.00    -0.130 OA 
HETATM    6  O   UNL     1      -7.983   7.751  67.415  1.00  0.00    -0.115 OA 
ENDROOT
BRANCH   2   7
HETATM    7  C   UNL     1     -10.425   6.764  66.970  1.00  0.00    -0.299 C  
BRANCH   7   8
HETATM    8  C   UNL     1     -10.640   7.193  68.375  1.00  0.00    -0.186 A  
HETATM    9  N   UNL     1     -10.674   6.262  69.343  1.00  0.00    -0.267 NA 
HETATM   10  O   UNL     1     -10.916   6.944  70.520  1.00  0.00    -0.247 OA 
HETATM   11  C   UNL     1     -11.053   8.268  70.259  1.00  0.00    -0.219 A  
HETATM   12  C   UNL     1     -11.307   9.267  71.196  1.00  0.00    -0.412 A  
HETATM   13  C   UNL     1     -11.410  10.571  70.702  1.00  0.00    -0.363 A  
HETATM   14  C   UNL     1     -11.273  10.837  69.337  1.00  0.00    -0.337 A  
HETATM   15  C   UNL     1     -11.024   9.804  68.420  1.00  0.00    -0.200 A  
HETATM   16  C   UNL     1     -10.897   8.489  68.900  1.00  0.00    -0.009 A  
ENDBRANCH   7   8
ENDBRANCH   2   7
TORSDOF 2
ENDMDL
MODEL      185
REMARK 921   NORMALIZED FREE ENERGY PREDICTED BY IDOCK:   -2.84 KCAL/MOL
REMARK 922        TOTAL FREE ENERGY PREDICTED BY IDOCK:   -3.57 KCAL/MOL
REMARK 923 INTER-LIGAND FREE ENERGY PREDICTED BY IDOCK:   -3.77 KCAL/MOL
REMARK 924 INTRA-LIGAND FREE ENERGY PREDICTED BY IDOCK:    0.21 KCAL/MOL
REMARK 927      BINDING AFFINITY PREDICTED BY RF-SCORE:    0.00 PKD
ROOT
HETATM    1  N   UNL     1      -8.274  10.398  66.932  1.00  0.00    -0.123 N  
HETATM    2  S   UNL     1      -7.409  10.718  68.342  1.00  0.00    -0.097 S  
HETATM    3  H1  UNL     1      -9.205  10.778  67.104  1.00  0.00     0.000 HD 
HETATM    4  H2  UNL     1      -7.941   9.927  66.092  1.00  0.00     0.000 HD 
HETATM    5  O   UNL     1      -6.091  10.180  68.098  1.00  0.00    -0.048 OA 
HETATM    6  O   UNL     1      -7.636  12.127  68.568  1.00  0.00    -0.118 OA 
ENDROOT
BRANCH   2   7
HETATM    7  C   UNL     1      -8.299   9.734  69.552  1.00  0.00    -0.161 C  
BRANCH   7   8
HETATM    8  C   UNL     1      -9.695  10.194  69.753  1.00  0.00    -0.196 A  
HETATM    9  N   UNL     1     -10.142  11.248  69.049  1.00  0.00    -0.172 NA 
HETATM   10  O   UNL     1     -11.444  11.460  69.464  1.00  0.00    -0.262 OA 
HETATM   11  C   UNL     1     -11.766  10.560  70.427  1.00  0.00    -0.344 A  
HETATM   12  C   UNL     1     -12.990  10.467  71.084  1.00  0.00    -0.506 A  
HETATM   13  C   UNL     1     -13.104   9.458  72.046  1.00  0.00    -0.516 A  
HETATM   14  C   UNL     1     -12.032   8.607  72.326  1.00  0.00    -0.438 A  
HETATM   15  C   UNL     1     -10.810   8.734  71.648  1.00  0.00    -0.399 A  
HETATM   16  C   UNL     1     -10.683   9.729  70.664  1.00  0.00    -0.394 A  
ENDBRANCH   7   8
ENDBRANCH   2   7
TORSDOF 2
ENDMDL
MODEL      186
REMARK 921   NORMALIZED FREE ENERGY PREDICTED BY IDOCK:   -2.84 KCAL/MOL
REMARK 922        TOTAL FREE ENERGY PREDICTED BY IDOCK:   -3.57 KCAL/MOL
REMARK 923 INTER-LIGAND FREE ENERGY PREDICTED BY IDOCK:   -3.15 KCAL/MOL
REMARK 924 INTRA-LIGAND FREE ENERGY PREDICTED BY IDOCK:   -0.41 KCAL/MOL
REMARK 927      BINDING AFFINITY PREDICTED BY RF-SCORE:    0.00 PKD
ROOT
HETATM    1  N   UNL     1      -9.613  11.299  68.974  1.00  0.00    -0.394 N  
HETATM    2  S   UNL     1      -8.055  10.905  68.467  1.00  0.00    -0.144 S  
HETATM    3  H1  UNL     1     -10.155  11.386  68.114  1.00  0.00     0.000 HD 
HETATM    4  H2  UNL     1      -9.943  11.423  69.931  1.00  0.00     0.000 HD 
HETATM    5  O   UNL     1      -7.290  10.781  69.685  1.00  0.00    -0.145 OA 
HETATM    6  O   UNL     1      -8.261   9.790  67.571  1.00  0.00    -0.113 OA 
ENDROOT
BRANCH   2   7
HETATM    7  C   UNL     1      -7.584  12.374  67.549  1.00  0.00    -0.155 C  
BRANCH   7   8
HETATM    8  C   UNL     1      -8.740  13.248  67.229  1.00  0.00    -0.214 A  
HETATM    9  N   UNL     1      -9.661  12.815  66.352  1.00  0.00    -0.257 NA 
HETATM   10  O   UNL     1     -10.584  13.838  66.233  1.00  0.00    -0.283 OA 
HETATM   11  C   UNL     1     -10.207  14.884  67.010  1.00  0.00    -0.256 A  
HETATM   12  C   UNL     1     -10.888  16.092  67.145  1.00  0.00    -0.239 A  
HETATM   13  C   UNL     1     -10.315  17.035  68.005  1.00  0.00    -0.341 A  
HETATM   14  C   UNL     1      -9.119  16.766  68.675  1.00  0.00    -0.254 A  
HETATM   15  C   UNL     1      -8.457  15.540  68.509  1.00  0.00    -0.163 A  
HETATM   16  C   UNL     1      -9.027  14.571  67.665  1.00  0.00    -0.193 A  
ENDBRANCH   7   8
ENDBRANCH   2   7
TORSDOF 2
ENDMDL
MODEL      187
REMARK 921   NORMALIZED FREE ENERGY PREDICTED BY IDOCK:   -2.83 KCAL/MOL
REMARK 922        TOTAL FREE ENERGY PREDICTED BY IDOCK:   -3.56 KCAL/MOL
REMARK 923 INTER-LIGAND FREE ENERGY PREDICTED BY IDOCK:   -3.33 KCAL/MOL
REMARK 924 INTRA-LIGAND FREE ENERGY PREDICTED BY IDOCK:   -0.23 KCAL/MOL
REMARK 927      BINDING AFFINITY PREDICTED BY RF-SCORE:    0.00 PKD
ROOT
HETATM    1  N   UNL     1      -8.667   8.417  67.784  1.00  0.00    -0.137 N  
HETATM    2  S   UNL     1     -10.168   8.738  67.090  1.00  0.00    -0.290 S  
HETATM    3  H1  UNL     1      -8.198   7.800  67.120  1.00  0.00     0.000 HD 
HETATM    4  H2  UNL     1      -8.305   8.764  68.672  1.00  0.00     0.000 HD 
HETATM    5  O   UNL     1     -10.831   9.612  68.029  1.00  0.00    -0.242 OA 
HETATM    6  O   UNL     1      -9.840   9.159  65.747  1.00  0.00    -0.286 OA 
ENDROOT
BRANCH   2   7
HETATM    7  C   UNL     1     -10.923   7.109  67.075  1.00  0.00    -0.234 C  
BRANCH   7   8
HETATM    8  C   UNL     1     -10.671   6.346  68.322  1.00  0.00    -0.285 A  
HETATM    9  N   UNL     1     -10.922   6.931  69.505  1.00  0.00    -0.256 NA 
HETATM   10  O   UNL     1     -10.567   6.006  70.470  1.00  0.00    -0.230 OA 
HETATM   11  C   UNL     1     -10.083   4.888  69.873  1.00  0.00    -0.262 A  
HETATM   12  C   UNL     1      -9.625   3.745  70.523  1.00  0.00    -0.262 A  
HETATM   13  C   UNL     1      -9.167   2.706  69.705  1.00  0.00    -0.199 A  
HETATM   14  C   UNL     1      -9.168   2.832  68.314  1.00  0.00    -0.250 A  
HETATM   15  C   UNL     1      -9.631   4.003  67.693  1.00  0.00    -0.210 A  
HETATM   16  C   UNL     1     -10.113   5.050  68.497  1.00  0.00    -0.184 A  
ENDBRANCH   7   8
ENDBRANCH   2   7
TORSDOF 2
ENDMDL
MODEL      188
REMARK 921   NORMALIZED FREE ENERGY PREDICTED BY IDOCK:   -2.81 KCAL/MOL
REMARK 922        TOTAL FREE ENERGY PREDICTED BY IDOCK:   -3.53 KCAL/MOL
REMARK 923 INTER-LIGAND FREE ENERGY PREDICTED BY IDOCK:   -3.08 KCAL/MOL
REMARK 924 INTRA-LIGAND FREE ENERGY PREDICTED BY IDOCK:   -0.45 KCAL/MOL
REMARK 927      BINDING AFFINITY PREDICTED BY RF-SCORE:    0.00 PKD
ROOT
HETATM    1  N   UNL     1     -11.655   7.586  72.966  1.00  0.00    -0.612 N  
HETATM    2  S   UNL     1     -11.432   6.214  72.013  1.00  0.00    -0.302 S  
HETATM    3  H1  UNL     1     -11.322   8.361  72.393  1.00  0.00     0.000 HD 
HETATM    4  H2  UNL     1     -12.038   7.631  73.910  1.00  0.00     0.000 HD 
HETATM    5  O   UNL     1     -11.904   5.118  72.825  1.00  0.00    -0.219 OA 
HETATM    6  O   UNL     1     -12.057   6.568  70.758  1.00  0.00    -0.362 OA 
ENDROOT
BRANCH   2   7
HETATM    7  C   UNL     1      -9.646   6.173  71.839  1.00  0.00    -0.153 C  
BRANCH   7   8
HETATM    8  C   UNL     1      -9.075   7.486  71.448  1.00  0.00    -0.137 A  
HETATM    9  N   UNL     1      -8.651   8.324  72.409  1.00  0.00    -0.191 NA 
HETATM   10  O   UNL     1      -8.209   9.460  71.756  1.00  0.00    -0.200 OA 
HETATM   11  C   UNL     1      -8.389   9.316  70.419  1.00  0.00    -0.199 A  
HETATM   12  C   UNL     1      -8.065  10.254  69.442  1.00  0.00    -0.167 A  
HETATM   13  C   UNL     1      -8.339   9.894  68.119  1.00  0.00    -0.110 A  
HETATM   14  C   UNL     1      -8.918   8.659  67.814  1.00  0.00    -0.140 A  
HETATM   15  C   UNL     1      -9.238   7.741  68.825  1.00  0.00    -0.139 A  
HETATM   16  C   UNL     1      -8.952   8.076  70.160  1.00  0.00    -0.150 A  
ENDBRANCH   7   8
ENDBRANCH   2   7
TORSDOF 2
ENDMDL
MODEL      189
REMARK 921   NORMALIZED FREE ENERGY PREDICTED BY IDOCK:   -2.79 KCAL/MOL
REMARK 922        TOTAL FREE ENERGY PREDICTED BY IDOCK:   -3.51 KCAL/MOL
REMARK 923 INTER-LIGAND FREE ENERGY PREDICTED BY IDOCK:   -3.43 KCAL/MOL
REMARK 924 INTRA-LIGAND FREE ENERGY PREDICTED BY IDOCK:   -0.08 KCAL/MOL
REMARK 927      BINDING AFFINITY PREDICTED BY RF-SCORE:    0.00 PKD
ROOT
HETATM    1  N   UNL     1      -8.570   7.423  68.456  1.00  0.00    -0.128 N  
HETATM    2  S   UNL     1     -10.229   7.683  68.315  1.00  0.00    -0.197 S  
HETATM    3  H1  UNL     1      -8.360   6.697  67.771  1.00  0.00     0.000 HD 
HETATM    4  H2  UNL     1      -7.919   7.890  69.087  1.00  0.00     0.000 HD 
HETATM    5  O   UNL     1     -10.527   8.712  69.283  1.00  0.00    -0.220 OA 
HETATM    6  O   UNL     1     -10.423   7.881  66.896  1.00  0.00    -0.325 OA 
ENDROOT
BRANCH   2   7
HETATM    7  C   UNL     1     -10.895   6.096  68.827  1.00  0.00    -0.336 C  
BRANCH   7   8
HETATM    8  C   UNL     1     -11.066   5.992  70.297  1.00  0.00    -0.345 A  
HETATM    9  N   UNL     1     -12.118   6.595  70.875  1.00  0.00    -0.366 NA 
HETATM   10  O   UNL     1     -11.997   6.355  72.232  1.00  0.00    -0.304 OA 
HETATM   11  C   UNL     1     -10.871   5.637  72.468  1.00  0.00    -0.251 A  
HETATM   12  C   UNL     1     -10.418   5.210  73.714  1.00  0.00    -0.303 A  
HETATM   13  C   UNL     1      -9.226   4.478  73.724  1.00  0.00    -0.107 A  
HETATM   14  C   UNL     1      -8.535   4.211  72.539  1.00  0.00    -0.100 A  
HETATM   15  C   UNL     1      -9.018   4.663  71.302  1.00  0.00    -0.164 A  
HETATM   16  C   UNL     1     -10.225   5.383  71.269  1.00  0.00    -0.287 A  
ENDBRANCH   7   8
ENDBRANCH   2   7
TORSDOF 2
ENDMDL
MODEL      190
REMARK 921   NORMALIZED FREE ENERGY PREDICTED BY IDOCK:   -2.74 KCAL/MOL
REMARK 922        TOTAL FREE ENERGY PREDICTED BY IDOCK:   -3.46 KCAL/MOL
REMARK 923 INTER-LIGAND FREE ENERGY PREDICTED BY IDOCK:   -3.07 KCAL/MOL
REMARK 924 INTRA-LIGAND FREE ENERGY PREDICTED BY IDOCK:   -0.38 KCAL/MOL
REMARK 927      BINDING AFFINITY PREDICTED BY RF-SCORE:    0.00 PKD
ROOT
HETATM    1  N   UNL     1      -9.663   8.368  65.589  1.00  0.00    -0.391 N  
HETATM    2  S   UNL     1      -9.883   8.467  67.257  1.00  0.00    -0.227 S  
HETATM    3  H1  UNL     1     -10.580   8.571  65.191  1.00  0.00     0.000 HD 
HETATM    4  H2  UNL     1      -8.802   8.152  65.087  1.00  0.00     0.000 HD 
HETATM    5  O   UNL     1      -8.585   8.179  67.819  1.00  0.00    -0.130 OA 
HETATM    6  O   UNL     1     -10.535   9.743  67.439  1.00  0.00    -0.227 OA 
ENDROOT
BRANCH   2   7
HETATM    7  C   UNL     1     -11.034   7.122  67.556  1.00  0.00    -0.190 C  
BRANCH   7   8
HETATM    8  C   UNL     1     -10.368   5.797  67.615  1.00  0.00    -0.217 A  
HETATM    9  N   UNL     1     -10.008   5.196  66.469  1.00  0.00    -0.189 NA 
HETATM   10  O   UNL     1      -9.450   3.984  66.831  1.00  0.00    -0.173 OA 
HETATM   11  C   UNL     1      -9.498   3.847  68.180  1.00  0.00    -0.161 A  
HETATM   12  C   UNL     1      -9.033   2.756  68.910  1.00  0.00    -0.179 A  
HETATM   13  C   UNL     1      -9.185   2.826  70.298  1.00  0.00    -0.207 A  
HETATM   14  C   UNL     1      -9.783   3.935  70.902  1.00  0.00    -0.253 A  
HETATM   15  C   UNL     1     -10.247   5.014  70.134  1.00  0.00    -0.329 A  
HETATM   16  C   UNL     1     -10.086   4.971  68.738  1.00  0.00    -0.200 A  
ENDBRANCH   7   8
ENDBRANCH   2   7
TORSDOF 2
ENDMDL
MODEL      191
REMARK 921   NORMALIZED FREE ENERGY PREDICTED BY IDOCK:   -2.74 KCAL/MOL
REMARK 922        TOTAL FREE ENERGY PREDICTED BY IDOCK:   -3.45 KCAL/MOL
REMARK 923 INTER-LIGAND FREE ENERGY PREDICTED BY IDOCK:   -3.35 KCAL/MOL
REMARK 924 INTRA-LIGAND FREE ENERGY PREDICTED BY IDOCK:   -0.11 KCAL/MOL
REMARK 927      BINDING AFFINITY PREDICTED BY RF-SCORE:    0.00 PKD
ROOT
HETATM    1  N   UNL     1      -9.686   3.241  65.253  1.00  0.00    -0.345 N  
HETATM    2  S   UNL     1      -9.412   4.163  66.636  1.00  0.00    -0.202 S  
HETATM    3  H1  UNL     1      -9.474   3.865  64.475  1.00  0.00     0.000 HD 
HETATM    4  H2  UNL     1      -9.994   2.270  65.205  1.00  0.00     0.000 HD 
HETATM    5  O   UNL     1      -9.710   3.278  67.737  1.00  0.00    -0.152 OA 
HETATM    6  O   UNL     1      -8.091   4.710  66.424  1.00  0.00    -0.102 OA 
ENDROOT
BRANCH   2   7
HETATM    7  C   UNL     1     -10.658   5.445  66.476  1.00  0.00    -0.289 C  
BRANCH   7   8
HETATM    8  C   UNL     1     -10.544   6.493  67.521  1.00  0.00    -0.280 A  
HETATM    9  N   UNL     1     -10.681   6.144  68.811  1.00  0.00    -0.275 NA 
HETATM   10  O   UNL     1     -10.559   7.314  69.538  1.00  0.00    -0.225 OA 
HETATM   11  C   UNL     1     -10.378   8.358  68.692  1.00  0.00    -0.197 A  
HETATM   12  C   UNL     1     -10.219   9.692  69.058  1.00  0.00    -0.209 A  
HETATM   13  C   UNL     1     -10.044  10.607  68.015  1.00  0.00    -0.181 A  
HETATM   14  C   UNL     1     -10.043  10.188  66.682  1.00  0.00    -0.283 A  
HETATM   15  C   UNL     1     -10.213   8.835  66.349  1.00  0.00    -0.256 A  
HETATM   16  C   UNL     1     -10.370   7.897  67.385  1.00  0.00    -0.349 A  
ENDBRANCH   7   8
ENDBRANCH   2   7
TORSDOF 2
ENDMDL
MODEL      192
REMARK 921   NORMALIZED FREE ENERGY PREDICTED BY IDOCK:   -2.72 KCAL/MOL
REMARK 922        TOTAL FREE ENERGY PREDICTED BY IDOCK:   -3.43 KCAL/MOL
REMARK 923 INTER-LIGAND FREE ENERGY PREDICTED BY IDOCK:   -3.17 KCAL/MOL
REMARK 924 INTRA-LIGAND FREE ENERGY PREDICTED BY IDOCK:   -0.27 KCAL/MOL
REMARK 927      BINDING AFFINITY PREDICTED BY RF-SCORE:    0.00 PKD
ROOT
HETATM    1  N   UNL     1     -10.508  10.577  69.946  1.00  0.00    -0.418 N  
HETATM    2  S   UNL     1      -9.600   9.166  70.103  1.00  0.00    -0.223 S  
HETATM    3  H1  UNL     1     -11.457  10.308  70.204  1.00  0.00     0.000 HD 
HETATM    4  H2  UNL     1     -10.180  11.498  69.657  1.00  0.00     0.000 HD 
HETATM    5  O   UNL     1      -8.256   9.547  69.739  1.00  0.00    -0.117 OA 
HETATM    6  O   UNL     1      -9.934   8.693  71.427  1.00  0.00    -0.207 OA 
ENDROOT
BRANCH   2   7
HETATM    7  C   UNL     1     -10.339   8.112  68.852  1.00  0.00    -0.211 C  
BRANCH   7   8
HETATM    8  C   UNL     1      -9.656   8.212  67.538  1.00  0.00    -0.157 A  
HETATM    9  N   UNL     1      -8.766   7.267  67.192  1.00  0.00    -0.120 NA 
HETATM   10  O   UNL     1      -8.278   7.638  65.953  1.00  0.00    -0.117 OA 
HETATM   11  C   UNL     1      -8.850   8.807  65.570  1.00  0.00    -0.188 A  
HETATM   12  C   UNL     1      -8.603   9.490  64.381  1.00  0.00    -0.213 A  
HETATM   13  C   UNL     1      -9.307  10.683  64.192  1.00  0.00    -0.297 A  
HETATM   14  C   UNL     1     -10.197  11.155  65.160  1.00  0.00    -0.347 A  
HETATM   15  C   UNL     1     -10.416  10.444  66.350  1.00  0.00    -0.246 A  
HETATM   16  C   UNL     1      -9.733   9.232  66.550  1.00  0.00    -0.305 A  
ENDBRANCH   7   8
ENDBRANCH   2   7
TORSDOF 2
ENDMDL
MODEL      193
REMARK 921   NORMALIZED FREE ENERGY PREDICTED BY IDOCK:   -2.70 KCAL/MOL
REMARK 922        TOTAL FREE ENERGY PREDICTED BY IDOCK:   -3.41 KCAL/MOL
REMARK 923 INTER-LIGAND FREE ENERGY PREDICTED BY IDOCK:   -3.16 KCAL/MOL
REMARK 924 INTRA-LIGAND FREE ENERGY PREDICTED BY IDOCK:   -0.25 KCAL/MOL
REMARK 927      BINDING AFFINITY PREDICTED BY RF-SCORE:    0.00 PKD
ROOT
HETATM    1  N   UNL     1      -7.532   4.290  70.376  1.00  0.00    -0.045 N  
HETATM    2  S   UNL     1      -8.898   5.247  70.618  1.00  0.00    -0.132 S  
HETATM    3  H1  UNL     1      -7.171   4.107  71.312  1.00  0.00     0.000 HD 
HETATM    4  H2  UNL     1      -7.150   3.965  69.488  1.00  0.00     0.000 HD 
HETATM    5  O   UNL     1      -9.409   5.505  69.293  1.00  0.00    -0.113 OA 
HETATM    6  O   UNL     1      -9.656   4.513  71.606  1.00  0.00    -0.143 OA 
ENDROOT
BRANCH   2   7
HETATM    7  C   UNL     1      -8.187   6.728  71.341  1.00  0.00    -0.111 C  
BRANCH   7   8
HETATM    8  C   UNL     1      -8.910   7.964  70.950  1.00  0.00    -0.138 A  
HETATM    9  N   UNL     1      -8.238   8.939  70.316  1.00  0.00    -0.115 NA 
HETATM   10  O   UNL     1      -9.149   9.959  70.111  1.00  0.00    -0.223 OA 
HETATM   11  C   UNL     1     -10.348   9.611  70.640  1.00  0.00    -0.297 A  
HETATM   12  C   UNL     1     -11.505  10.386  70.629  1.00  0.00    -0.438 A  
HETATM   13  C   UNL     1     -12.634   9.826  71.236  1.00  0.00    -0.460 A  
HETATM   14  C   UNL     1     -12.582   8.561  71.826  1.00  0.00    -0.387 A  
HETATM   15  C   UNL     1     -11.396   7.810  71.824  1.00  0.00    -0.302 A  
HETATM   16  C   UNL     1     -10.256   8.347  71.202  1.00  0.00    -0.254 A  
ENDBRANCH   7   8
ENDBRANCH   2   7
TORSDOF 2
ENDMDL
MODEL      194
REMARK 921   NORMALIZED FREE ENERGY PREDICTED BY IDOCK:   -2.69 KCAL/MOL
REMARK 922        TOTAL FREE ENERGY PREDICTED BY IDOCK:   -3.40 KCAL/MOL
REMARK 923 INTER-LIGAND FREE ENERGY PREDICTED BY IDOCK:   -3.01 KCAL/MOL
REMARK 924 INTRA-LIGAND FREE ENERGY PREDICTED BY IDOCK:   -0.39 KCAL/MOL
REMARK 927      BINDING AFFINITY PREDICTED BY RF-SCORE:    0.00 PKD
ROOT
HETATM    1  N   UNL     1     -11.241   4.344  64.907  1.00  0.00    -0.885 N  
HETATM    2  S   UNL     1     -10.106   3.492  63.999  1.00  0.00    -0.222 S  
HETATM    3  H1  UNL     1     -10.823   5.263  65.054  1.00  0.00     0.000 HD 
HETATM    4  H2  UNL     1     -12.147   4.014  65.237  1.00  0.00     0.000 HD 
HETATM    5  O   UNL     1     -10.698   2.192  63.791  1.00  0.00    -0.105 OA 
HETATM    6  O   UNL     1      -9.806   4.386  62.904  1.00  0.00    -0.113 OA 
ENDROOT
BRANCH   2   7
HETATM    7  C   UNL     1      -8.719   3.400  65.136  1.00  0.00    -0.119 C  
BRANCH   7   8
HETATM    8  C   UNL     1      -9.000   4.050  66.440  1.00  0.00    -0.128 A  
HETATM    9  N   UNL     1      -9.038   5.391  66.506  1.00  0.00    -0.131 NA 
HETATM   10  O   UNL     1      -9.285   5.701  67.830  1.00  0.00    -0.108 OA 
HETATM   11  C   UNL     1      -9.368   4.559  68.557  1.00  0.00    -0.143 A  
HETATM   12  C   UNL     1      -9.605   4.475  69.927  1.00  0.00    -0.269 A  
HETATM   13  C   UNL     1      -9.652   3.187  70.472  1.00  0.00    -0.201 A  
HETATM   14  C   UNL     1      -9.457   2.059  69.671  1.00  0.00    -0.114 A  
HETATM   15  C   UNL     1      -9.214   2.182  68.294  1.00  0.00    -0.238 A  
HETATM   16  C   UNL     1      -9.183   3.467  67.724  1.00  0.00    -0.235 A  
ENDBRANCH   7   8
ENDBRANCH   2   7
TORSDOF 2
ENDMDL
MODEL      195
REMARK 921   NORMALIZED FREE ENERGY PREDICTED BY IDOCK:   -2.68 KCAL/MOL
REMARK 922        TOTAL FREE ENERGY PREDICTED BY IDOCK:   -3.40 KCAL/MOL
REMARK 923 INTER-LIGAND FREE ENERGY PREDICTED BY IDOCK:   -3.25 KCAL/MOL
REMARK 924 INTRA-LIGAND FREE ENERGY PREDICTED BY IDOCK:   -0.14 KCAL/MOL
REMARK 927      BINDING AFFINITY PREDICTED BY RF-SCORE:    0.00 PKD
ROOT
HETATM    1  N   UNL     1     -12.620   7.551  70.695  1.00  0.00    -0.544 N  
HETATM    2  S   UNL     1     -12.437   8.912  71.672  1.00  0.00    -0.365 S  
HETATM    3  H1  UNL     1     -11.819   6.960  70.916  1.00  0.00     0.000 HD 
HETATM    4  H2  UNL     1     -13.368   7.360  70.028  1.00  0.00     0.000 HD 
HETATM    5  O   UNL     1     -13.572   9.748  71.358  1.00  0.00    -0.342 OA 
HETATM    6  O   UNL     1     -12.229   8.358  72.990  1.00  0.00    -0.228 OA 
ENDROOT
BRANCH   2   7
HETATM    7  C   UNL     1     -10.914   9.619  71.037  1.00  0.00    -0.361 C  
BRANCH   7   8
HETATM    8  C   UNL     1      -9.746   8.720  71.212  1.00  0.00    -0.265 A  
HETATM    9  N   UNL     1      -9.074   8.743  72.374  1.00  0.00    -0.375 NA 
HETATM   10  O   UNL     1      -8.036   7.840  72.233  1.00  0.00    -0.100 OA 
HETATM   11  C   UNL     1      -8.070   7.299  70.990  1.00  0.00    -0.103 A  
HETATM   12  C   UNL     1      -7.183   6.353  70.483  1.00  0.00    -0.074 A  
HETATM   13  C   UNL     1      -7.406   5.932  69.168  1.00  0.00    -0.083 A  
HETATM   14  C   UNL     1      -8.462   6.453  68.416  1.00  0.00    -0.116 A  
HETATM   15  C   UNL     1      -9.333   7.411  68.957  1.00  0.00    -0.145 A  
HETATM   16  C   UNL     1      -9.137   7.832  70.283  1.00  0.00    -0.152 A  
ENDBRANCH   7   8
ENDBRANCH   2   7
TORSDOF 2
ENDMDL
MODEL      196
REMARK 921   NORMALIZED FREE ENERGY PREDICTED BY IDOCK:   -2.66 KCAL/MOL
REMARK 922        TOTAL FREE ENERGY PREDICTED BY IDOCK:   -3.37 KCAL/MOL
REMARK 923 INTER-LIGAND FREE ENERGY PREDICTED BY IDOCK:   -3.47 KCAL/MOL
REMARK 924 INTRA-LIGAND FREE ENERGY PREDICTED BY IDOCK:    0.10 KCAL/MOL
REMARK 927      BINDING AFFINITY PREDICTED BY RF-SCORE:    0.00 PKD
ROOT
HETATM    1  N   UNL     1     -13.294  14.613  71.216  1.00  0.00    -0.368 N  
HETATM    2  S   UNL     1     -12.060  14.700  70.072  1.00  0.00    -0.342 S  
HETATM    3  H1  UNL     1     -12.898  14.078  71.989  1.00  0.00     0.000 HD 
HETATM    4  H2  UNL     1     -14.231  15.009  71.150  1.00  0.00     0.000 HD 
HETATM    5  O   UNL     1     -12.620  15.457  68.979  1.00  0.00     0.041 OA 
HETATM    6  O   UNL     1     -10.924  15.169  70.832  1.00  0.00    -0.283 OA 
ENDROOT
BRANCH   2   7
HETATM    7  C   UNL     1     -11.850  12.973  69.626  1.00  0.00    -0.319 C  
BRANCH   7   8
HETATM    8  C   UNL     1     -10.813  12.770  68.584  1.00  0.00    -0.253 A  
HETATM    9  N   UNL     1     -10.027  13.803  68.236  1.00  0.00    -0.238 NA 
HETATM   10  O   UNL     1      -9.195  13.330  67.239  1.00  0.00    -0.204 OA 
HETATM   11  C   UNL     1      -9.495  12.034  66.972  1.00  0.00    -0.198 A  
HETATM   12  C   UNL     1      -8.869  11.226  66.026  1.00  0.00    -0.189 A  
HETATM   13  C   UNL     1      -9.343   9.914  65.919  1.00  0.00    -0.245 A  
HETATM   14  C   UNL     1     -10.394   9.461  66.719  1.00  0.00    -0.303 A  
HETATM   15  C   UNL     1     -11.006  10.306  67.657  1.00  0.00    -0.356 A  
HETATM   16  C   UNL     1     -10.531  11.622  67.794  1.00  0.00    -0.213 A  
ENDBRANCH   7   8
ENDBRANCH   2   7
TORSDOF 2
ENDMDL
MODEL      197
REMARK 921   NORMALIZED FREE ENERGY PREDICTED BY IDOCK:   -2.66 KCAL/MOL
REMARK 922        TOTAL FREE ENERGY PREDICTED BY IDOCK:   -3.37 KCAL/MOL
REMARK 923 INTER-LIGAND FREE ENERGY PREDICTED BY IDOCK:   -3.15 KCAL/MOL
REMARK 924 INTRA-LIGAND FREE ENERGY PREDICTED BY IDOCK:   -0.22 KCAL/MOL
REMARK 927      BINDING AFFINITY PREDICTED BY RF-SCORE:    0.00 PKD
ROOT
HETATM    1  N   UNL     1     -12.162  10.459  69.217  1.00  0.00    -0.524 N  
HETATM    2  S   UNL     1     -10.688   9.869  69.783  1.00  0.00    -0.286 S  
HETATM    3  H1  UNL     1     -12.863   9.826  69.602  1.00  0.00     0.000 HD 
HETATM    4  H2  UNL     1     -12.318  11.271  68.621  1.00  0.00     0.000 HD 
HETATM    5  O   UNL     1      -9.696  10.766  69.238  1.00  0.00    -0.198 OA 
HETATM    6  O   UNL     1     -10.902   9.729  71.206  1.00  0.00    -0.334 OA 
ENDROOT
BRANCH   2   7
HETATM    7  C   UNL     1     -10.610   8.257  68.995  1.00  0.00    -0.150 C  
BRANCH   7   8
HETATM    8  C   UNL     1      -9.730   7.306  69.718  1.00  0.00    -0.166 A  
HETATM    9  N   UNL     1      -8.441   7.205  69.353  1.00  0.00    -0.133 NA 
HETATM   10  O   UNL     1      -7.889   6.234  70.168  1.00  0.00    -0.102 OA 
HETATM   11  C   UNL     1      -8.843   5.739  70.996  1.00  0.00    -0.138 A  
HETATM   12  C   UNL     1      -8.660   4.745  71.955  1.00  0.00    -0.128 A  
HETATM   13  C   UNL     1      -9.788   4.386  72.700  1.00  0.00    -0.205 A  
HETATM   14  C   UNL     1     -11.025   4.996  72.473  1.00  0.00    -0.241 A  
HETATM   15  C   UNL     1     -11.173   5.989  71.494  1.00  0.00    -0.326 A  
HETATM   16  C   UNL     1     -10.047   6.378  70.747  1.00  0.00    -0.220 A  
ENDBRANCH   7   8
ENDBRANCH   2   7
TORSDOF 2
ENDMDL
MODEL      198
REMARK 921   NORMALIZED FREE ENERGY PREDICTED BY IDOCK:   -2.64 KCAL/MOL
REMARK 922        TOTAL FREE ENERGY PREDICTED BY IDOCK:   -3.35 KCAL/MOL
REMARK 923 INTER-LIGAND FREE ENERGY PREDICTED BY IDOCK:   -3.28 KCAL/MOL
REMARK 924 INTRA-LIGAND FREE ENERGY PREDICTED BY IDOCK:   -0.07 KCAL/MOL
REMARK 927      BINDING AFFINITY PREDICTED BY RF-SCORE:    0.00 PKD
ROOT
HETATM    1  N   UNL     1     -11.194   4.611  65.306  1.00  0.00    -0.987 N  
HETATM    2  S   UNL     1      -9.637   3.995  65.493  1.00  0.00    -0.196 S  
HETATM    3  H1  UNL     1     -11.196   5.482  65.836  1.00  0.00     0.000 HD 
HETATM    4  H2  UNL     1     -11.964   4.203  64.777  1.00  0.00     0.000 HD 
HETATM    5  O   UNL     1      -9.633   2.762  64.742  1.00  0.00    -0.148 OA 
HETATM    6  O   UNL     1      -8.785   5.110  65.147  1.00  0.00    -0.146 OA 
ENDROOT
BRANCH   2   7
HETATM    7  C   UNL     1      -9.576   3.680  67.260  1.00  0.00    -0.150 C  
BRANCH   7   8
HETATM    8  C   UNL     1      -9.018   4.820  68.029  1.00  0.00    -0.112 A  
HETATM    9  N   UNL     1      -7.687   5.003  68.049  1.00  0.00    -0.083 NA 
HETATM   10  O   UNL     1      -7.466   6.103  68.857  1.00  0.00    -0.083 OA 
HETATM   11  C   UNL     1      -8.650   6.559  69.339  1.00  0.00    -0.134 A  
HETATM   12  C   UNL     1      -8.824   7.649  70.188  1.00  0.00    -0.146 A  
HETATM   13  C   UNL     1     -10.139   7.943  70.561  1.00  0.00    -0.192 A  
HETATM   14  C   UNL     1     -11.207   7.166  70.105  1.00  0.00    -0.295 A  
HETATM   15  C   UNL     1     -10.994   6.070  69.255  1.00  0.00    -0.436 A  
HETATM   16  C   UNL     1      -9.681   5.771  68.853  1.00  0.00    -0.174 A  
ENDBRANCH   7   8
ENDBRANCH   2   7
TORSDOF 2
ENDMDL
MODEL      199
REMARK 921   NORMALIZED FREE ENERGY PREDICTED BY IDOCK:   -2.61 KCAL/MOL
REMARK 922        TOTAL FREE ENERGY PREDICTED BY IDOCK:   -3.31 KCAL/MOL
REMARK 923 INTER-LIGAND FREE ENERGY PREDICTED BY IDOCK:   -3.05 KCAL/MOL
REMARK 924 INTRA-LIGAND FREE ENERGY PREDICTED BY IDOCK:   -0.27 KCAL/MOL
REMARK 927      BINDING AFFINITY PREDICTED BY RF-SCORE:    0.00 PKD
ROOT
HETATM    1  N   UNL     1     -11.261   4.445  65.091  1.00  0.00    -0.935 N  
HETATM    2  S   UNL     1      -9.636   4.005  65.169  1.00  0.00    -0.191 S  
HETATM    3  H1  UNL     1     -11.273   5.442  65.305  1.00  0.00     0.000 HD 
HETATM    4  H2  UNL     1     -12.057   3.846  64.876  1.00  0.00     0.000 HD 
HETATM    5  O   UNL     1      -9.619   2.594  64.865  1.00  0.00    -0.128 OA 
HETATM    6  O   UNL     1      -8.979   4.982  64.330  1.00  0.00    -0.118 OA 
ENDROOT
BRANCH   2   7
HETATM    7  C   UNL     1      -9.257   4.303  66.898  1.00  0.00    -0.148 C  
BRANCH   7   8
HETATM    8  C   UNL     1      -8.624   5.625  67.129  1.00  0.00    -0.109 A  
HETATM    9  N   UNL     1      -7.313   5.680  67.414  1.00  0.00    -0.076 NA 
HETATM   10  O   UNL     1      -7.020   7.017  67.607  1.00  0.00    -0.077 OA 
HETATM   11  C   UNL     1      -8.149   7.756  67.466  1.00  0.00    -0.124 A  
HETATM   12  C   UNL     1      -8.245   9.139  67.591  1.00  0.00    -0.108 A  
HETATM   13  C   UNL     1      -9.515   9.694  67.403  1.00  0.00    -0.170 A  
HETATM   14  C   UNL     1     -10.618   8.886  67.117  1.00  0.00    -0.301 A  
HETATM   15  C   UNL     1     -10.486   7.494  67.005  1.00  0.00    -0.409 A  
HETATM   16  C   UNL     1      -9.214   6.919  67.170  1.00  0.00    -0.153 A  
ENDBRANCH   7   8
ENDBRANCH   2   7
TORSDOF 2
ENDMDL
MODEL      200
REMARK 921   NORMALIZED FREE ENERGY PREDICTED BY IDOCK:   -2.61 KCAL/MOL
REMARK 922        TOTAL FREE ENERGY PREDICTED BY IDOCK:   -3.31 KCAL/MOL
REMARK 923 INTER-LIGAND FREE ENERGY PREDICTED BY IDOCK:   -3.09 KCAL/MOL
REMARK 924 INTRA-LIGAND FREE ENERGY PREDICTED BY IDOCK:   -0.22 KCAL/MOL
REMARK 927      BINDING AFFINITY PREDICTED BY RF-SCORE:    0.00 PKD
ROOT
HETATM    1  N   UNL     1     -12.446   8.194  70.712  1.00  0.00    -0.494 N  
HETATM    2  S   UNL     1     -11.563   9.613  70.929  1.00  0.00    -0.371 S  
HETATM    3  H1  UNL     1     -11.752   7.490  70.463  1.00  0.00     0.000 HD 
HETATM    4  H2  UNL     1     -13.453   8.068  70.809  1.00  0.00     0.000 HD 
HETATM    5  O   UNL     1     -12.546  10.611  71.282  1.00  0.00    -0.359 OA 
HETATM    6  O   UNL     1     -10.505   9.221  71.832  1.00  0.00    -0.305 OA 
ENDROOT
BRANCH   2   7
HETATM    7  C   UNL     1     -10.912   9.897  69.280  1.00  0.00    -0.211 C  
BRANCH   7   8
HETATM    8  C   UNL     1      -9.724   9.061  68.979  1.00  0.00    -0.167 A  
HETATM    9  N   UNL     1      -8.499   9.591  69.126  1.00  0.00    -0.124 NA 
HETATM   10  O   UNL     1      -7.607   8.604  68.748  1.00  0.00    -0.092 OA 
HETATM   11  C   UNL     1      -8.291   7.501  68.353  1.00  0.00    -0.125 A  
HETATM   12  C   UNL     1      -7.732   6.308  67.902  1.00  0.00    -0.103 A  
HETATM   13  C   UNL     1      -8.629   5.296  67.545  1.00  0.00    -0.104 A  
HETATM   14  C   UNL     1     -10.010   5.495  67.633  1.00  0.00    -0.187 A  
HETATM   15  C   UNL     1     -10.538   6.714  68.085  1.00  0.00    -0.294 A  
HETATM   16  C   UNL     1      -9.652   7.736  68.468  1.00  0.00    -0.151 A  
ENDBRANCH   7   8
ENDBRANCH   2   7
TORSDOF 2
ENDMDL
MODEL      201
REMARK 921   NORMALIZED FREE ENERGY PREDICTED BY IDOCK:   -2.61 KCAL/MOL
REMARK 922        TOTAL FREE ENERGY PREDICTED BY IDOCK:   -3.31 KCAL/MOL
REMARK 923 INTER-LIGAND FREE ENERGY PREDICTED BY IDOCK:   -2.91 KCAL/MOL
REMARK 924 INTRA-LIGAND FREE ENERGY PREDICTED BY IDOCK:   -0.40 KCAL/MOL
REMARK 927      BINDING AFFINITY PREDICTED BY RF-SCORE:    0.00 PKD
ROOT
HETATM    1  N   UNL     1      -9.693   4.390  67.536  1.00  0.00    -0.178 N  
HETATM    2  S   UNL     1      -8.774   5.688  66.978  1.00  0.00    -0.108 S  
HETATM    3  H1  UNL     1     -10.449   4.816  68.072  1.00  0.00     0.000 HD 
HETATM    4  H2  UNL     1      -9.529   3.397  67.373  1.00  0.00     0.000 HD 
HETATM    5  O   UNL     1      -7.703   5.085  66.220  1.00  0.00    -0.090 OA 
HETATM    6  O   UNL     1      -9.752   6.561  66.371  1.00  0.00    -0.156 OA 
ENDROOT
BRANCH   2   7
HETATM    7  C   UNL     1      -8.165   6.394  68.513  1.00  0.00    -0.113 C  
BRANCH   7   8
HETATM    8  C   UNL     1      -9.233   6.571  69.528  1.00  0.00    -0.142 A  
HETATM    9  N   UNL     1      -9.643   5.505  70.235  1.00  0.00    -0.166 NA 
HETATM   10  O   UNL     1     -10.650   5.962  71.065  1.00  0.00    -0.228 OA 
HETATM   11  C   UNL     1     -10.860   7.284  70.840  1.00  0.00    -0.243 A  
HETATM   12  C   UNL     1     -11.797   8.086  71.487  1.00  0.00    -0.328 A  
HETATM   13  C   UNL     1     -11.841   9.428  71.095  1.00  0.00    -0.413 A  
HETATM   14  C   UNL     1     -10.991   9.916  70.100  1.00  0.00    -0.356 A  
HETATM   15  C   UNL     1     -10.064   9.076  69.465  1.00  0.00    -0.199 A  
HETATM   16  C   UNL     1      -9.990   7.729  69.858  1.00  0.00    -0.191 A  
ENDBRANCH   7   8
ENDBRANCH   2   7
TORSDOF 2
ENDMDL
MODEL      202
REMARK 921   NORMALIZED FREE ENERGY PREDICTED BY IDOCK:   -2.55 KCAL/MOL
REMARK 922        TOTAL FREE ENERGY PREDICTED BY IDOCK:   -3.24 KCAL/MOL
REMARK 923 INTER-LIGAND FREE ENERGY PREDICTED BY IDOCK:   -2.81 KCAL/MOL
REMARK 924 INTRA-LIGAND FREE ENERGY PREDICTED BY IDOCK:   -0.43 KCAL/MOL
REMARK 927      BINDING AFFINITY PREDICTED BY RF-SCORE:    0.00 PKD
ROOT
HETATM    1  N   UNL     1     -11.299   9.396  69.141  1.00  0.00    -0.439 N  
HETATM    2  S   UNL     1      -9.947   9.576  68.152  1.00  0.00    -0.173 S  
HETATM    3  H1  UNL     1     -10.942   8.978  70.000  1.00  0.00     0.000 HD 
HETATM    4  H2  UNL     1     -12.263   9.650  68.928  1.00  0.00     0.000 HD 
HETATM    5  O   UNL     1     -10.454  10.168  66.936  1.00  0.00    -0.233 OA 
HETATM    6  O   UNL     1      -8.993  10.253  68.999  1.00  0.00    -0.152 OA 
ENDROOT
BRANCH   2   7
HETATM    7  C   UNL     1      -9.456   7.869  67.887  1.00  0.00    -0.145 C  
BRANCH   7   8
HETATM    8  C   UNL     1      -9.963   6.954  68.940  1.00  0.00    -0.157 A  
HETATM    9  N   UNL     1     -11.193   6.431  68.811  1.00  0.00    -0.326 NA 
HETATM   10  O   UNL     1     -11.399   5.658  69.939  1.00  0.00    -0.168 OA 
HETATM   11  C   UNL     1     -10.314   5.738  70.750  1.00  0.00    -0.237 A  
HETATM   12  C   UNL     1     -10.158   5.097  71.976  1.00  0.00    -0.253 A  
HETATM   13  C   UNL     1      -8.951   5.322  72.646  1.00  0.00    -0.135 A  
HETATM   14  C   UNL     1      -7.971   6.157  72.103  1.00  0.00    -0.109 A  
HETATM   15  C   UNL     1      -8.166   6.793  70.868  1.00  0.00    -0.123 A  
HETATM   16  C   UNL     1      -9.364   6.563  70.169  1.00  0.00    -0.162 A  
ENDBRANCH   7   8
ENDBRANCH   2   7
TORSDOF 2
ENDMDL
MODEL      203
REMARK 921   NORMALIZED FREE ENERGY PREDICTED BY IDOCK:   -2.52 KCAL/MOL
REMARK 922        TOTAL FREE ENERGY PREDICTED BY IDOCK:   -3.21 KCAL/MOL
REMARK 923 INTER-LIGAND FREE ENERGY PREDICTED BY IDOCK:   -2.84 KCAL/MOL
REMARK 924 INTRA-LIGAND FREE ENERGY PREDICTED BY IDOCK:   -0.37 KCAL/MOL
REMARK 927      BINDING AFFINITY PREDICTED BY RF-SCORE:    0.00 PKD
ROOT
HETATM    1  N   UNL     1      -8.070   3.406  72.724  1.00  0.00    -0.075 N  
HETATM    2  S   UNL     1      -9.579   3.993  73.191  1.00  0.00    -0.119 S  
HETATM    3  H1  UNL     1      -7.484   3.502  73.554  1.00  0.00     0.000 HD 
HETATM    4  H2  UNL     1      -7.801   3.037  71.813  1.00  0.00     0.000 HD 
HETATM    5  O   UNL     1     -10.409   3.856  72.017  1.00  0.00    -0.140 OA 
HETATM    6  O   UNL     1      -9.857   3.280  74.417  1.00  0.00    -0.106 OA 
ENDROOT
BRANCH   2   7
HETATM    7  C   UNL     1      -9.215   5.717  73.533  1.00  0.00    -0.134 C  
BRANCH   7   8
HETATM    8  C   UNL     1      -9.202   6.556  72.309  1.00  0.00    -0.138 A  
HETATM    9  N   UNL     1      -8.242   6.355  71.391  1.00  0.00    -0.120 NA 
HETATM   10  O   UNL     1      -8.465   7.289  70.395  1.00  0.00    -0.136 OA 
HETATM   11  C   UNL     1      -9.532   8.060  70.725  1.00  0.00    -0.161 A  
HETATM   12  C   UNL     1     -10.052   9.106  69.967  1.00  0.00    -0.230 A  
HETATM   13  C   UNL     1     -11.162   9.768  70.501  1.00  0.00    -0.381 A  
HETATM   14  C   UNL     1     -11.699   9.392  71.735  1.00  0.00    -0.444 A  
HETATM   15  C   UNL     1     -11.144   8.337  72.475  1.00  0.00    -0.439 A  
HETATM   16  C   UNL     1     -10.040   7.646  71.946  1.00  0.00    -0.218 A  
ENDBRANCH   7   8
ENDBRANCH   2   7
TORSDOF 2
ENDMDL
MODEL      204
REMARK 921   NORMALIZED FREE ENERGY PREDICTED BY IDOCK:   -2.50 KCAL/MOL
REMARK 922        TOTAL FREE ENERGY PREDICTED BY IDOCK:   -3.19 KCAL/MOL
REMARK 923 INTER-LIGAND FREE ENERGY PREDICTED BY IDOCK:   -3.08 KCAL/MOL
REMARK 924 INTRA-LIGAND FREE ENERGY PREDICTED BY IDOCK:   -0.11 KCAL/MOL
REMARK 927      BINDING AFFINITY PREDICTED BY RF-SCORE:    0.00 PKD
ROOT
HETATM    1  N   UNL     1     -10.462  10.953  69.871  1.00  0.00    -0.441 N  
HETATM    2  S   UNL     1     -11.750  11.780  69.168  1.00  0.00    -0.336 S  
HETATM    3  H1  UNL     1      -9.950  11.662  70.395  1.00  0.00     0.000 HD 
HETATM    4  H2  UNL     1     -10.243   9.960  69.791  1.00  0.00     0.000 HD 
HETATM    5  O   UNL     1     -12.476  10.776  68.427  1.00  0.00    -0.179 OA 
HETATM    6  O   UNL     1     -12.341  12.496  70.276  1.00  0.00    -0.277 OA 
ENDROOT
BRANCH   2   7
HETATM    7  C   UNL     1     -10.901  12.915  68.065  1.00  0.00    -0.241 C  
BRANCH   7   8
HETATM    8  C   UNL     1     -10.318  12.237  66.881  1.00  0.00    -0.216 A  
HETATM    9  N   UNL     1     -11.038  12.171  65.748  1.00  0.00    -0.307 NA 
HETATM   10  O   UNL     1     -10.263  11.467  64.845  1.00  0.00    -0.247 OA 
HETATM   11  C   UNL     1      -9.102  11.091  65.437  1.00  0.00    -0.195 A  
HETATM   12  C   UNL     1      -8.074  10.365  64.839  1.00  0.00    -0.130 A  
HETATM   13  C   UNL     1      -6.962  10.088  65.640  1.00  0.00    -0.115 A  
HETATM   14  C   UNL     1      -6.907  10.516  66.969  1.00  0.00    -0.087 A  
HETATM   15  C   UNL     1      -7.964  11.240  67.540  1.00  0.00    -0.124 A  
HETATM   16  C   UNL     1      -9.083  11.546  66.746  1.00  0.00    -0.184 A  
ENDBRANCH   7   8
ENDBRANCH   2   7
TORSDOF 2
ENDMDL
MODEL      205
REMARK 921   NORMALIZED FREE ENERGY PREDICTED BY IDOCK:   -2.50 KCAL/MOL
REMARK 922        TOTAL FREE ENERGY PREDICTED BY IDOCK:   -3.19 KCAL/MOL
REMARK 923 INTER-LIGAND FREE ENERGY PREDICTED BY IDOCK:   -3.18 KCAL/MOL
REMARK 924 INTRA-LIGAND FREE ENERGY PREDICTED BY IDOCK:   -0.01 KCAL/MOL
REMARK 927      BINDING AFFINITY PREDICTED BY RF-SCORE:    0.00 PKD
ROOT
HETATM    1  N   UNL     1      -9.595  10.992  66.461  1.00  0.00    -0.191 N  
HETATM    2  S   UNL     1      -8.568  10.635  67.749  1.00  0.00    -0.123 S  
HETATM    3  H1  UNL     1     -10.501  11.177  66.892  1.00  0.00     0.000 HD 
HETATM    4  H2  UNL     1      -9.361  11.018  65.469  1.00  0.00     0.000 HD 
HETATM    5  O   UNL     1      -7.286  10.374  67.139  1.00  0.00    -0.088 OA 
HETATM    6  O   UNL     1      -8.776  11.734  68.664  1.00  0.00    -0.143 OA 
ENDROOT
BRANCH   2   7
HETATM    7  C   UNL     1      -9.299   9.129  68.396  1.00  0.00    -0.135 C  
BRANCH   7   8
HETATM    8  C   UNL     1      -9.090   8.968  69.856  1.00  0.00    -0.168 A  
HETATM    9  N   UNL     1      -7.924   9.363  70.394  1.00  0.00    -0.158 NA 
HETATM   10  O   UNL     1      -8.006   9.065  71.742  1.00  0.00    -0.343 OA 
HETATM   11  C   UNL     1      -9.199   8.474  72.006  1.00  0.00    -0.256 A  
HETATM   12  C   UNL     1      -9.636   8.031  73.251  1.00  0.00    -0.322 A  
HETATM   13  C   UNL     1     -10.907   7.448  73.292  1.00  0.00    -0.417 A  
HETATM   14  C   UNL     1     -11.675   7.314  72.133  1.00  0.00    -0.323 A  
HETATM   15  C   UNL     1     -11.199   7.766  70.893  1.00  0.00    -0.284 A  
HETATM   16  C   UNL     1      -9.933   8.373  70.834  1.00  0.00    -0.230 A  
ENDBRANCH   7   8
ENDBRANCH   2   7
TORSDOF 2
ENDMDL
MODEL      206
REMARK 921   NORMALIZED FREE ENERGY PREDICTED BY IDOCK:   -2.48 KCAL/MOL
REMARK 922        TOTAL FREE ENERGY PREDICTED BY IDOCK:   -3.17 KCAL/MOL
REMARK 923 INTER-LIGAND FREE ENERGY PREDICTED BY IDOCK:   -2.98 KCAL/MOL
REMARK 924 INTRA-LIGAND FREE ENERGY PREDICTED BY IDOCK:   -0.19 KCAL/MOL
REMARK 927      BINDING AFFINITY PREDICTED BY RF-SCORE:    0.00 PKD
ROOT
HETATM    1  N   UNL     1     -11.355   8.688  70.058  1.00  0.00    -0.448 N  
HETATM    2  S   UNL     1     -10.748   7.134  69.818  1.00  0.00    -0.241 S  
HETATM    3  H1  UNL     1     -12.336   8.631  69.785  1.00  0.00     0.000 HD 
HETATM    4  H2  UNL     1     -10.852   9.505  70.402  1.00  0.00     0.000 HD 
HETATM    5  O   UNL     1      -9.360   7.215  70.205  1.00  0.00    -0.156 OA 
HETATM    6  O   UNL     1     -11.694   6.289  70.510  1.00  0.00    -0.354 OA 
ENDROOT
BRANCH   2   7
HETATM    7  C   UNL     1     -10.917   6.945  68.040  1.00  0.00    -0.166 C  
BRANCH   7   8
HETATM    8  C   UNL     1     -10.204   8.000  67.279  1.00  0.00    -0.275 A  
HETATM    9  N   UNL     1     -10.537   9.286  67.478  1.00  0.00    -0.279 NA 
HETATM   10  O   UNL     1      -9.740  10.024  66.622  1.00  0.00    -0.177 OA 
HETATM   11  C   UNL     1      -8.955   9.188  65.897  1.00  0.00    -0.189 A  
HETATM   12  C   UNL     1      -8.026   9.567  64.932  1.00  0.00    -0.121 A  
HETATM   13  C   UNL     1      -7.323   8.533  64.305  1.00  0.00    -0.102 A  
HETATM   14  C   UNL     1      -7.563   7.197  64.635  1.00  0.00    -0.106 A  
HETATM   15  C   UNL     1      -8.512   6.851  65.609  1.00  0.00    -0.141 A  
HETATM   16  C   UNL     1      -9.214   7.877  66.264  1.00  0.00    -0.231 A  
ENDBRANCH   7   8
ENDBRANCH   2   7
TORSDOF 2
ENDMDL
MODEL      207
REMARK 921   NORMALIZED FREE ENERGY PREDICTED BY IDOCK:   -2.46 KCAL/MOL
REMARK 922        TOTAL FREE ENERGY PREDICTED BY IDOCK:   -3.14 KCAL/MOL
REMARK 923 INTER-LIGAND FREE ENERGY PREDICTED BY IDOCK:   -2.67 KCAL/MOL
REMARK 924 INTRA-LIGAND FREE ENERGY PREDICTED BY IDOCK:   -0.47 KCAL/MOL
REMARK 927      BINDING AFFINITY PREDICTED BY RF-SCORE:    0.00 PKD
ROOT
HETATM    1  N   UNL     1     -11.083   7.430  70.726  1.00  0.00    -0.259 N  
HETATM    2  S   UNL     1     -10.953   8.943  71.455  1.00  0.00    -0.355 S  
HETATM    3  H1  UNL     1     -10.191   7.290  70.251  1.00  0.00     0.000 HD 
HETATM    4  H2  UNL     1     -11.879   6.793  70.753  1.00  0.00     0.000 HD 
HETATM    5  O   UNL     1     -12.215   9.140  72.128  1.00  0.00    -0.367 OA 
HETATM    6  O   UNL     1      -9.701   8.867  72.174  1.00  0.00    -0.306 OA 
ENDROOT
BRANCH   2   7
HETATM    7  C   UNL     1     -10.798  10.026  70.031  1.00  0.00    -0.302 C  
BRANCH   7   8
HETATM    8  C   UNL     1     -10.058   9.398  68.909  1.00  0.00    -0.190 A  
HETATM    9  N   UNL     1     -10.751   8.847  67.898  1.00  0.00    -0.174 NA 
HETATM   10  O   UNL     1      -9.810   8.322  67.032  1.00  0.00    -0.187 OA 
HETATM   11  C   UNL     1      -8.565   8.533  67.530  1.00  0.00    -0.128 A  
HETATM   12  C   UNL     1      -7.368   8.142  66.936  1.00  0.00    -0.087 A  
HETATM   13  C   UNL     1      -6.197   8.463  67.629  1.00  0.00    -0.053 A  
HETATM   14  C   UNL     1      -6.246   9.131  68.855  1.00  0.00    -0.044 A  
HETATM   15  C   UNL     1      -7.472   9.504  69.428  1.00  0.00    -0.088 A  
HETATM   16  C   UNL     1      -8.659   9.208  68.737  1.00  0.00    -0.131 A  
ENDBRANCH   7   8
ENDBRANCH   2   7
TORSDOF 2
ENDMDL
MODEL      208
REMARK 921   NORMALIZED FREE ENERGY PREDICTED BY IDOCK:   -2.44 KCAL/MOL
REMARK 922        TOTAL FREE ENERGY PREDICTED BY IDOCK:   -3.13 KCAL/MOL
REMARK 923 INTER-LIGAND FREE ENERGY PREDICTED BY IDOCK:   -2.92 KCAL/MOL
REMARK 924 INTRA-LIGAND FREE ENERGY PREDICTED BY IDOCK:   -0.21 KCAL/MOL
REMARK 927      BINDING AFFINITY PREDICTED BY RF-SCORE:    0.00 PKD
ROOT
HETATM    1  N   UNL     1      -7.324  10.604  64.353  1.00  0.00    -0.350 N  
HETATM    2  S   UNL     1      -7.402  10.070  65.950  1.00  0.00    -0.121 S  
HETATM    3  H1  UNL     1      -7.601  11.584  64.391  1.00  0.00     0.000 HD 
HETATM    4  H2  UNL     1      -7.058  10.064  63.530  1.00  0.00     0.000 HD 
HETATM    5  O   UNL     1      -7.009   8.682  65.896  1.00  0.00    -0.073 OA 
HETATM    6  O   UNL     1      -6.639  11.059  66.676  1.00  0.00    -0.108 OA 
ENDROOT
BRANCH   2   7
HETATM    7  C   UNL     1      -9.153  10.237  66.308  1.00  0.00    -0.154 C  
BRANCH   7   8
HETATM    8  C   UNL     1      -9.667   9.154  67.183  1.00  0.00    -0.182 A  
HETATM    9  N   UNL     1     -10.285   8.101  66.623  1.00  0.00    -0.294 NA 
HETATM   10  O   UNL     1     -10.675   7.286  67.670  1.00  0.00    -0.237 OA 
HETATM   11  C   UNL     1     -10.319   7.857  68.848  1.00  0.00    -0.213 A  
HETATM   12  C   UNL     1     -10.548   7.330  70.117  1.00  0.00    -0.245 A  
HETATM   13  C   UNL     1     -10.093   8.092  71.198  1.00  0.00    -0.222 A  
HETATM   14  C   UNL     1      -9.455   9.319  70.996  1.00  0.00    -0.313 A  
HETATM   15  C   UNL     1      -9.246   9.822  69.703  1.00  0.00    -0.239 A  
HETATM   16  C   UNL     1      -9.679   9.062  68.602  1.00  0.00    -0.168 A  
ENDBRANCH   7   8
ENDBRANCH   2   7
TORSDOF 2
ENDMDL
MODEL      209
REMARK 921   NORMALIZED FREE ENERGY PREDICTED BY IDOCK:   -2.43 KCAL/MOL
REMARK 922        TOTAL FREE ENERGY PREDICTED BY IDOCK:   -3.11 KCAL/MOL
REMARK 923 INTER-LIGAND FREE ENERGY PREDICTED BY IDOCK:   -2.92 KCAL/MOL
REMARK 924 INTRA-LIGAND FREE ENERGY PREDICTED BY IDOCK:   -0.18 KCAL/MOL
REMARK 927      BINDING AFFINITY PREDICTED BY RF-SCORE:    0.00 PKD
ROOT
HETATM    1  N   UNL     1     -11.955  12.965  67.716  1.00  0.00    -0.329 N  
HETATM    2  S   UNL     1     -10.506  12.104  67.698  1.00  0.00    -0.210 S  
HETATM    3  H1  UNL     1     -12.654  12.295  68.038  1.00  0.00     0.000 HD 
HETATM    4  H2  UNL     1     -12.101  13.941  67.460  1.00  0.00     0.000 HD 
HETATM    5  O   UNL     1      -9.517  13.052  67.243  1.00  0.00    -0.210 OA 
HETATM    6  O   UNL     1     -10.451  11.505  69.012  1.00  0.00    -0.203 OA 
ENDROOT
BRANCH   2   7
HETATM    7  C   UNL     1     -10.834  10.856  66.450  1.00  0.00    -0.145 C  
BRANCH   7   8
HETATM    8  C   UNL     1      -9.806   9.787  66.421  1.00  0.00    -0.235 A  
HETATM    9  N   UNL     1      -8.586  10.069  65.936  1.00  0.00    -0.136 NA 
HETATM   10  O   UNL     1      -7.866   8.891  66.005  1.00  0.00    -0.099 OA 
HETATM   11  C   UNL     1      -8.654   7.905  66.502  1.00  0.00    -0.142 A  
HETATM   12  C   UNL     1      -8.275   6.581  66.714  1.00  0.00    -0.110 A  
HETATM   13  C   UNL     1      -9.254   5.731  67.237  1.00  0.00    -0.110 A  
HETATM   14  C   UNL     1     -10.540   6.200  67.517  1.00  0.00    -0.344 A  
HETATM   15  C   UNL     1     -10.889   7.539  67.285  1.00  0.00    -0.297 A  
HETATM   16  C   UNL     1      -9.913   8.414  66.777  1.00  0.00    -0.354 A  
ENDBRANCH   7   8
ENDBRANCH   2   7
TORSDOF 2
ENDMDL
MODEL      210
REMARK 921   NORMALIZED FREE ENERGY PREDICTED BY IDOCK:   -2.41 KCAL/MOL
REMARK 922        TOTAL FREE ENERGY PREDICTED BY IDOCK:   -3.09 KCAL/MOL
REMARK 923 INTER-LIGAND FREE ENERGY PREDICTED BY IDOCK:   -2.72 KCAL/MOL
REMARK 924 INTRA-LIGAND FREE ENERGY PREDICTED BY IDOCK:   -0.38 KCAL/MOL
REMARK 927      BINDING AFFINITY PREDICTED BY RF-SCORE:    0.00 PKD
ROOT
HETATM    1  N   UNL     1      -9.215   8.194  67.411  1.00  0.00    -0.136 N  
HETATM    2  S   UNL     1      -8.059   9.402  67.624  1.00  0.00    -0.106 S  
HETATM    3  H1  UNL     1     -10.099   8.629  67.674  1.00  0.00     0.000 HD 
HETATM    4  H2  UNL     1      -9.063   7.239  67.090  1.00  0.00     0.000 HD 
HETATM    5  O   UNL     1      -6.807   8.787  67.251  1.00  0.00    -0.066 OA 
HETATM    6  O   UNL     1      -8.608  10.529  66.904  1.00  0.00    -0.124 OA 
ENDROOT
BRANCH   2   7
HETATM    7  C   UNL     1      -8.142   9.684  69.395  1.00  0.00    -0.118 C  
BRANCH   7   8
HETATM    8  C   UNL     1      -9.473   9.361  69.967  1.00  0.00    -0.228 A  
HETATM    9  N   UNL     1     -10.520  10.148  69.668  1.00  0.00    -0.236 NA 
HETATM   10  O   UNL     1     -11.598   9.627  70.359  1.00  0.00    -0.258 OA 
HETATM   11  C   UNL     1     -11.198   8.554  71.085  1.00  0.00    -0.267 A  
HETATM   12  C   UNL     1     -12.006   7.773  71.908  1.00  0.00    -0.340 A  
HETATM   13  C   UNL     1     -11.380   6.710  72.566  1.00  0.00    -0.290 A  
HETATM   14  C   UNL     1     -10.014   6.466  72.403  1.00  0.00    -0.183 A  
HETATM   15  C   UNL     1      -9.229   7.278  71.570  1.00  0.00    -0.150 A  
HETATM   16  C   UNL     1      -9.843   8.340  70.884  1.00  0.00    -0.215 A  
ENDBRANCH   7   8
ENDBRANCH   2   7
TORSDOF 2
ENDMDL
MODEL      211
REMARK 921   NORMALIZED FREE ENERGY PREDICTED BY IDOCK:   -2.39 KCAL/MOL
REMARK 922        TOTAL FREE ENERGY PREDICTED BY IDOCK:   -3.07 KCAL/MOL
REMARK 923 INTER-LIGAND FREE ENERGY PREDICTED BY IDOCK:   -2.74 KCAL/MOL
REMARK 924 INTRA-LIGAND FREE ENERGY PREDICTED BY IDOCK:   -0.32 KCAL/MOL
REMARK 927      BINDING AFFINITY PREDICTED BY RF-SCORE:    0.00 PKD
ROOT
HETATM    1  N   UNL     1      -8.728   6.757  67.023  1.00  0.00    -0.113 N  
HETATM    2  S   UNL     1      -8.837   5.119  67.402  1.00  0.00    -0.105 S  
HETATM    3  H1  UNL     1      -7.734   6.976  67.088  1.00  0.00     0.000 HD 
HETATM    4  H2  UNL     1      -9.490   7.391  66.780  1.00  0.00     0.000 HD 
HETATM    5  O   UNL     1     -10.244   4.809  67.309  1.00  0.00    -0.171 OA 
HETATM    6  O   UNL     1      -7.854   4.504  66.539  1.00  0.00    -0.097 OA 
ENDROOT
BRANCH   2   7
HETATM    7  C   UNL     1      -8.278   5.099  69.108  1.00  0.00    -0.084 C  
BRANCH   7   8
HETATM    8  C   UNL     1      -9.337   5.505  70.065  1.00  0.00    -0.148 A  
HETATM    9  N   UNL     1      -9.929   6.701  69.913  1.00  0.00    -0.170 NA 
HETATM   10  O   UNL     1     -10.834   6.814  70.952  1.00  0.00    -0.234 OA 
HETATM   11  C   UNL     1     -10.768   5.708  71.735  1.00  0.00    -0.244 A  
HETATM   12  C   UNL     1     -11.529   5.466  72.876  1.00  0.00    -0.340 A  
HETATM   13  C   UNL     1     -11.294   4.253  73.533  1.00  0.00    -0.316 A  
HETATM   14  C   UNL     1     -10.337   3.352  73.061  1.00  0.00    -0.247 A  
HETATM   15  C   UNL     1      -9.584   3.633  71.911  1.00  0.00    -0.216 A  
HETATM   16  C   UNL     1      -9.818   4.837  71.225  1.00  0.00    -0.256 A  
ENDBRANCH   7   8
ENDBRANCH   2   7
TORSDOF 2
ENDMDL
MODEL      212
REMARK 921   NORMALIZED FREE ENERGY PREDICTED BY IDOCK:   -2.39 KCAL/MOL
REMARK 922        TOTAL FREE ENERGY PREDICTED BY IDOCK:   -3.06 KCAL/MOL
REMARK 923 INTER-LIGAND FREE ENERGY PREDICTED BY IDOCK:   -2.84 KCAL/MOL
REMARK 924 INTRA-LIGAND FREE ENERGY PREDICTED BY IDOCK:   -0.23 KCAL/MOL
REMARK 927      BINDING AFFINITY PREDICTED BY RF-SCORE:    0.00 PKD
ROOT
HETATM    1  N   UNL     1      -8.520   3.983  69.965  1.00  0.00    -0.063 N  
HETATM    2  S   UNL     1      -9.778   5.026  70.375  1.00  0.00    -0.229 S  
HETATM    3  H1  UNL     1      -8.034   3.800  70.843  1.00  0.00     0.000 HD 
HETATM    4  H2  UNL     1      -8.294   3.615  69.041  1.00  0.00     0.000 HD 
HETATM    5  O   UNL     1     -10.466   5.284  69.132  1.00  0.00    -0.219 OA 
HETATM    6  O   UNL     1     -10.420   4.364  71.487  1.00  0.00    -0.085 OA 
ENDROOT
BRANCH   2   7
HETATM    7  C   UNL     1      -8.883   6.478  70.936  1.00  0.00    -0.147 C  
BRANCH   7   8
HETATM    8  C   UNL     1      -9.714   7.708  70.918  1.00  0.00    -0.172 A  
HETATM    9  N   UNL     1     -10.541   7.951  71.949  1.00  0.00    -0.220 NA 
HETATM   10  O   UNL     1     -11.195   9.130  71.642  1.00  0.00    -0.333 OA 
HETATM   11  C   UNL     1     -10.785   9.577  70.429  1.00  0.00    -0.284 A  
HETATM   12  C   UNL     1     -11.226  10.732  69.788  1.00  0.00    -0.365 A  
HETATM   13  C   UNL     1     -10.665  11.001  68.536  1.00  0.00    -0.236 A  
HETATM   14  C   UNL     1      -9.723  10.139  67.969  1.00  0.00    -0.161 A  
HETATM   15  C   UNL     1      -9.307   8.979  68.640  1.00  0.00    -0.136 A  
HETATM   16  C   UNL     1      -9.844   8.702  69.909  1.00  0.00    -0.185 A  
ENDBRANCH   7   8
ENDBRANCH   2   7
TORSDOF 2
ENDMDL
MODEL      213
REMARK 921   NORMALIZED FREE ENERGY PREDICTED BY IDOCK:   -2.38 KCAL/MOL
REMARK 922        TOTAL FREE ENERGY PREDICTED BY IDOCK:   -3.06 KCAL/MOL
REMARK 923 INTER-LIGAND FREE ENERGY PREDICTED BY IDOCK:   -2.84 KCAL/MOL
REMARK 924 INTRA-LIGAND FREE ENERGY PREDICTED BY IDOCK:   -0.21 KCAL/MOL
REMARK 927      BINDING AFFINITY PREDICTED BY RF-SCORE:    0.00 PKD
ROOT
HETATM    1  N   UNL     1      -9.719  11.046  69.486  1.00  0.00    -0.416 N  
HETATM    2  S   UNL     1     -10.509   9.703  70.126  1.00  0.00    -0.294 S  
HETATM    3  H1  UNL     1     -10.292  11.333  68.692  1.00  0.00     0.000 HD 
HETATM    4  H2  UNL     1      -8.858  11.479  69.820  1.00  0.00     0.000 HD 
HETATM    5  O   UNL     1      -9.699   9.298  71.251  1.00  0.00    -0.282 OA 
HETATM    6  O   UNL     1     -11.874  10.153  70.282  1.00  0.00    -0.266 OA 
ENDROOT
BRANCH   2   7
HETATM    7  C   UNL     1     -10.384   8.525  68.777  1.00  0.00    -0.213 C  
BRANCH   7   8
HETATM    8  C   UNL     1     -10.218   7.127  69.248  1.00  0.00    -0.190 A  
HETATM    9  N   UNL     1     -11.311   6.403  69.539  1.00  0.00    -0.407 NA 
HETATM   10  O   UNL     1     -10.850   5.174  69.974  1.00  0.00    -0.169 OA 
HETATM   11  C   UNL     1      -9.493   5.169  69.969  1.00  0.00    -0.160 A  
HETATM   12  C   UNL     1      -8.676   4.106  70.345  1.00  0.00    -0.121 A  
HETATM   13  C   UNL     1      -7.297   4.323  70.261  1.00  0.00    -0.045 A  
HETATM   14  C   UNL     1      -6.786   5.549  69.831  1.00  0.00    -0.051 A  
HETATM   15  C   UNL     1      -7.640   6.601  69.465  1.00  0.00    -0.095 A  
HETATM   16  C   UNL     1      -9.029   6.397  69.524  1.00  0.00    -0.136 A  
ENDBRANCH   7   8
ENDBRANCH   2   7
TORSDOF 2
ENDMDL
MODEL      214
REMARK 921   NORMALIZED FREE ENERGY PREDICTED BY IDOCK:   -2.38 KCAL/MOL
REMARK 922        TOTAL FREE ENERGY PREDICTED BY IDOCK:   -3.05 KCAL/MOL
REMARK 923 INTER-LIGAND FREE ENERGY PREDICTED BY IDOCK:   -2.84 KCAL/MOL
REMARK 924 INTRA-LIGAND FREE ENERGY PREDICTED BY IDOCK:   -0.22 KCAL/MOL
REMARK 927      BINDING AFFINITY PREDICTED BY RF-SCORE:    0.00 PKD
ROOT
HETATM    1  N   UNL     1     -12.785   8.529  71.084  1.00  0.00    -0.483 N  
HETATM    2  S   UNL     1     -11.568   9.694  71.039  1.00  0.00    -0.388 S  
HETATM    3  H1  UNL     1     -12.297   7.637  70.997  1.00  0.00     0.000 HD 
HETATM    4  H2  UNL     1     -13.789   8.682  71.177  1.00  0.00     0.000 HD 
HETATM    5  O   UNL     1     -12.258  10.956  71.162  1.00  0.00    -0.352 OA 
HETATM    6  O   UNL     1     -10.621   9.234  72.029  1.00  0.00    -0.269 OA 
ENDROOT
BRANCH   2   7
HETATM    7  C   UNL     1     -10.907   9.472  69.384  1.00  0.00    -0.206 C  
BRANCH   7   8
HETATM    8  C   UNL     1      -9.830  10.440  69.060  1.00  0.00    -0.212 A  
HETATM    9  N   UNL     1     -10.156  11.609  68.484  1.00  0.00    -0.205 NA 
HETATM   10  O   UNL     1      -8.963  12.277  68.276  1.00  0.00    -0.190 OA 
HETATM   11  C   UNL     1      -7.930  11.506  68.699  1.00  0.00    -0.135 A  
HETATM   12  C   UNL     1      -6.580  11.844  68.648  1.00  0.00    -0.066 A  
HETATM   13  C   UNL     1      -5.682  10.893  69.142  1.00  0.00    -0.040 A  
HETATM   14  C   UNL     1      -6.132   9.671  69.646  1.00  0.00    -0.043 A  
HETATM   15  C   UNL     1      -7.501   9.361  69.676  1.00  0.00    -0.084 A  
HETATM   16  C   UNL     1      -8.421  10.311  69.202  1.00  0.00    -0.164 A  
ENDBRANCH   7   8
ENDBRANCH   2   7
TORSDOF 2
ENDMDL
MODEL      215
REMARK 921   NORMALIZED FREE ENERGY PREDICTED BY IDOCK:   -2.38 KCAL/MOL
REMARK 922        TOTAL FREE ENERGY PREDICTED BY IDOCK:   -3.05 KCAL/MOL
REMARK 923 INTER-LIGAND FREE ENERGY PREDICTED BY IDOCK:   -3.13 KCAL/MOL
REMARK 924 INTRA-LIGAND FREE ENERGY PREDICTED BY IDOCK:    0.07 KCAL/MOL
REMARK 927      BINDING AFFINITY PREDICTED BY RF-SCORE:    0.00 PKD
ROOT
HETATM    1  N   UNL     1     -11.050  11.435  70.064  1.00  0.00    -0.480 N  
HETATM    2  S   UNL     1     -11.137   9.768  70.293  1.00  0.00    -0.312 S  
HETATM    3  H1  UNL     1     -11.800  11.649  69.408  1.00  0.00     0.000 HD 
HETATM    4  H2  UNL     1     -10.391  12.087  70.490  1.00  0.00     0.000 HD 
HETATM    5  O   UNL     1     -10.075   9.465  71.223  1.00  0.00    -0.302 OA 
HETATM    6  O   UNL     1     -12.528   9.541  70.613  1.00  0.00    -0.183 OA 
ENDROOT
BRANCH   2   7
HETATM    7  C   UNL     1     -10.759   9.151  68.650  1.00  0.00    -0.118 C  
BRANCH   7   8
HETATM    8  C   UNL     1     -10.625   7.673  68.607  1.00  0.00    -0.130 A  
HETATM    9  N   UNL     1     -11.078   6.947  69.642  1.00  0.00    -0.268 NA 
HETATM   10  O   UNL     1     -10.793   5.629  69.338  1.00  0.00    -0.320 OA 
HETATM   11  C   UNL     1     -10.150   5.566  68.145  1.00  0.00    -0.172 A  
HETATM   12  C   UNL     1      -9.703   4.408  67.515  1.00  0.00    -0.211 A  
HETATM   13  C   UNL     1      -9.063   4.578  66.283  1.00  0.00    -0.123 A  
HETATM   14  C   UNL     1      -8.881   5.850  65.736  1.00  0.00    -0.145 A  
HETATM   15  C   UNL     1      -9.339   6.997  66.402  1.00  0.00    -0.182 A  
HETATM   16  C   UNL     1     -10.003   6.846  67.632  1.00  0.00    -0.180 A  
ENDBRANCH   7   8
ENDBRANCH   2   7
TORSDOF 2
ENDMDL
MODEL      216
REMARK 921   NORMALIZED FREE ENERGY PREDICTED BY IDOCK:   -2.37 KCAL/MOL
REMARK 922        TOTAL FREE ENERGY PREDICTED BY IDOCK:   -3.05 KCAL/MOL
REMARK 923 INTER-LIGAND FREE ENERGY PREDICTED BY IDOCK:   -2.85 KCAL/MOL
REMARK 924 INTRA-LIGAND FREE ENERGY PREDICTED BY IDOCK:   -0.20 KCAL/MOL
REMARK 927      BINDING AFFINITY PREDICTED BY RF-SCORE:    0.00 PKD
ROOT
HETATM    1  N   UNL     1      -7.841   7.146  69.069  1.00  0.00    -0.112 N  
HETATM    2  S   UNL     1      -7.546   5.616  68.426  1.00  0.00    -0.082 S  
HETATM    3  H1  UNL     1      -7.649   7.053  70.066  1.00  0.00     0.000 HD 
HETATM    4  H2  UNL     1      -8.144   7.982  68.570  1.00  0.00     0.000 HD 
HETATM    5  O   UNL     1      -7.816   5.749  67.014  1.00  0.00    -0.100 OA 
HETATM    6  O   UNL     1      -6.233   5.283  68.931  1.00  0.00    -0.027 OA 
ENDROOT
BRANCH   2   7
HETATM    7  C   UNL     1      -8.804   4.627  69.239  1.00  0.00    -0.089 C  
BRANCH   7   8
HETATM    8  C   UNL     1      -9.911   5.445  69.793  1.00  0.00    -0.224 A  
HETATM    9  N   UNL     1     -10.932   5.790  68.990  1.00  0.00    -0.278 NA 
HETATM   10  O   UNL     1     -11.779   6.564  69.761  1.00  0.00    -0.382 OA 
HETATM   11  C   UNL     1     -11.260   6.704  71.006  1.00  0.00    -0.300 A  
HETATM   12  C   UNL     1     -11.832   7.419  72.056  1.00  0.00    -0.335 A  
HETATM   13  C   UNL     1     -11.119   7.431  73.260  1.00  0.00    -0.303 A  
HETATM   14  C   UNL     1      -9.897   6.765  73.379  1.00  0.00    -0.230 A  
HETATM   15  C   UNL     1      -9.347   6.060  72.297  1.00  0.00    -0.149 A  
HETATM   16  C   UNL     1     -10.058   6.020  71.085  1.00  0.00    -0.241 A  
ENDBRANCH   7   8
ENDBRANCH   2   7
TORSDOF 2
ENDMDL
MODEL      217
REMARK 921   NORMALIZED FREE ENERGY PREDICTED BY IDOCK:   -2.37 KCAL/MOL
REMARK 922        TOTAL FREE ENERGY PREDICTED BY IDOCK:   -3.04 KCAL/MOL
REMARK 923 INTER-LIGAND FREE ENERGY PREDICTED BY IDOCK:   -2.65 KCAL/MOL
REMARK 924 INTRA-LIGAND FREE ENERGY PREDICTED BY IDOCK:   -0.39 KCAL/MOL
REMARK 927      BINDING AFFINITY PREDICTED BY RF-SCORE:    0.00 PKD
ROOT
HETATM    1  N   UNL     1     -12.049   7.710  70.384  1.00  0.00    -0.489 N  
HETATM    2  S   UNL     1     -10.962   7.398  71.632  1.00  0.00    -0.228 S  
HETATM    3  H1  UNL     1     -12.051   6.861  69.819  1.00  0.00     0.000 HD 
HETATM    4  H2  UNL     1     -12.589   8.562  70.228  1.00  0.00     0.000 HD 
HETATM    5  O   UNL     1     -10.960   8.600  72.432  1.00  0.00    -0.353 OA 
HETATM    6  O   UNL     1     -11.401   6.125  72.156  1.00  0.00    -0.270 OA 
ENDROOT
BRANCH   2   7
HETATM    7  C   UNL     1      -9.417   7.212  70.736  1.00  0.00    -0.164 C  
BRANCH   7   8
HETATM    8  C   UNL     1      -8.926   8.490  70.164  1.00  0.00    -0.147 A  
HETATM    9  N   UNL     1      -9.639   9.085  69.192  1.00  0.00    -0.159 NA 
HETATM   10  O   UNL     1      -8.931  10.219  68.841  1.00  0.00    -0.145 OA 
HETATM   11  C   UNL     1      -7.792  10.291  69.575  1.00  0.00    -0.168 A  
HETATM   12  C   UNL     1      -6.828  11.293  69.496  1.00  0.00    -0.115 A  
HETATM   13  C   UNL     1      -5.728  11.165  70.351  1.00  0.00    -0.137 A  
HETATM   14  C   UNL     1      -5.616  10.079  71.223  1.00  0.00    -0.061 A  
HETATM   15  C   UNL     1      -6.604   9.084  71.270  1.00  0.00    -0.086 A  
HETATM   16  C   UNL     1      -7.727   9.204  70.433  1.00  0.00    -0.132 A  
ENDBRANCH   7   8
ENDBRANCH   2   7
TORSDOF 2
ENDMDL
MODEL      218
REMARK 921   NORMALIZED FREE ENERGY PREDICTED BY IDOCK:   -2.34 KCAL/MOL
REMARK 922        TOTAL FREE ENERGY PREDICTED BY IDOCK:   -3.01 KCAL/MOL
REMARK 923 INTER-LIGAND FREE ENERGY PREDICTED BY IDOCK:   -2.62 KCAL/MOL
REMARK 924 INTRA-LIGAND FREE ENERGY PREDICTED BY IDOCK:   -0.39 KCAL/MOL
REMARK 927      BINDING AFFINITY PREDICTED BY RF-SCORE:    0.00 PKD
ROOT
HETATM    1  N   UNL     1     -11.525   8.007  69.986  1.00  0.00    -0.469 N  
HETATM    2  S   UNL     1     -11.053   8.828  71.380  1.00  0.00    -0.319 S  
HETATM    3  H1  UNL     1     -11.136   7.070  70.090  1.00  0.00     0.000 HD 
HETATM    4  H2  UNL     1     -12.079   8.367  69.210  1.00  0.00     0.000 HD 
HETATM    5  O   UNL     1     -11.605  10.154  71.233  1.00  0.00    -0.364 OA 
HETATM    6  O   UNL     1     -11.453   7.942  72.449  1.00  0.00    -0.324 OA 
ENDROOT
BRANCH   2   7
HETATM    7  C   UNL     1      -9.266   8.845  71.210  1.00  0.00    -0.258 C  
BRANCH   7   8
HETATM    8  C   UNL     1      -8.653   7.515  71.449  1.00  0.00    -0.120 A  
HETATM    9  N   UNL     1      -8.973   6.494  70.636  1.00  0.00    -0.147 NA 
HETATM   10  O   UNL     1      -8.284   5.395  71.115  1.00  0.00    -0.114 OA 
HETATM   11  C   UNL     1      -7.579   5.746  72.220  1.00  0.00    -0.101 A  
HETATM   12  C   UNL     1      -6.768   4.904  72.977  1.00  0.00    -0.066 A  
HETATM   13  C   UNL     1      -6.132   5.480  74.080  1.00  0.00    -0.058 A  
HETATM   14  C   UNL     1      -6.320   6.828  74.397  1.00  0.00    -0.076 A  
HETATM   15  C   UNL     1      -7.151   7.646  73.616  1.00  0.00    -0.110 A  
HETATM   16  C   UNL     1      -7.783   7.090  72.491  1.00  0.00    -0.093 A  
ENDBRANCH   7   8
ENDBRANCH   2   7
TORSDOF 2
ENDMDL
MODEL      219
REMARK 921   NORMALIZED FREE ENERGY PREDICTED BY IDOCK:   -2.33 KCAL/MOL
REMARK 922        TOTAL FREE ENERGY PREDICTED BY IDOCK:   -3.00 KCAL/MOL
REMARK 923 INTER-LIGAND FREE ENERGY PREDICTED BY IDOCK:   -2.79 KCAL/MOL
REMARK 924 INTRA-LIGAND FREE ENERGY PREDICTED BY IDOCK:   -0.21 KCAL/MOL
REMARK 927      BINDING AFFINITY PREDICTED BY RF-SCORE:    0.00 PKD
ROOT
HETATM    1  N   UNL     1      -8.010   2.906  66.430  1.00  0.00    -0.080 N  
HETATM    2  S   UNL     1      -8.095   4.396  67.213  1.00  0.00    -0.101 S  
HETATM    3  H1  UNL     1      -8.197   3.115  65.449  1.00  0.00     0.000 HD 
HETATM    4  H2  UNL     1      -7.813   1.996  66.846  1.00  0.00     0.000 HD 
HETATM    5  O   UNL     1      -7.829   4.101  68.601  1.00  0.00    -0.071 OA 
HETATM    6  O   UNL     1      -7.228   5.244  66.426  1.00  0.00    -0.074 OA 
ENDROOT
BRANCH   2   7
HETATM    7  C   UNL     1      -9.815   4.846  66.961  1.00  0.00    -0.193 C  
BRANCH   7   8
HETATM    8  C   UNL     1     -10.198   6.083  67.686  1.00  0.00    -0.181 A  
HETATM    9  N   UNL     1     -10.223   7.248  67.018  1.00  0.00    -0.251 NA 
HETATM   10  O   UNL     1     -10.578   8.212  67.945  1.00  0.00    -0.212 OA 
HETATM   11  C   UNL     1     -10.738   7.635  69.162  1.00  0.00    -0.141 A  
HETATM   12  C   UNL     1     -11.091   8.290  70.339  1.00  0.00    -0.238 A  
HETATM   13  C   UNL     1     -11.200   7.494  71.484  1.00  0.00    -0.271 A  
HETATM   14  C   UNL     1     -10.953   6.120  71.433  1.00  0.00    -0.334 A  
HETATM   15  C   UNL     1     -10.592   5.495  70.230  1.00  0.00    -0.357 A  
HETATM   16  C   UNL     1     -10.496   6.274  69.063  1.00  0.00    -0.287 A  
ENDBRANCH   7   8
ENDBRANCH   2   7
TORSDOF 2
ENDMDL
MODEL      220
REMARK 921   NORMALIZED FREE ENERGY PREDICTED BY IDOCK:   -2.32 KCAL/MOL
REMARK 922        TOTAL FREE ENERGY PREDICTED BY IDOCK:   -2.99 KCAL/MOL
REMARK 923 INTER-LIGAND FREE ENERGY PREDICTED BY IDOCK:   -2.81 KCAL/MOL
REMARK 924 INTRA-LIGAND FREE ENERGY PREDICTED BY IDOCK:   -0.18 KCAL/MOL
REMARK 927      BINDING AFFINITY PREDICTED BY RF-SCORE:    0.00 PKD
ROOT
HETATM    1  N   UNL     1     -10.960   7.899  68.648  1.00  0.00    -0.416 N  
HETATM    2  S   UNL     1     -10.986   8.618  70.172  1.00  0.00    -0.189 S  
HETATM    3  H1  UNL     1     -10.763   6.914  68.826  1.00  0.00     0.000 HD 
HETATM    4  H2  UNL     1     -11.109   8.350  67.746  1.00  0.00     0.000 HD 
HETATM    5  O   UNL     1     -11.265  10.012  69.920  1.00  0.00    -0.250 OA 
HETATM    6  O   UNL     1     -11.884   7.777  70.930  1.00  0.00    -0.290 OA 
ENDROOT
BRANCH   2   7
HETATM    7  C   UNL     1      -9.291   8.384  70.718  1.00  0.00    -0.163 C  
BRANCH   7   8
HETATM    8  C   UNL     1      -9.199   7.678  72.020  1.00  0.00    -0.138 A  
HETATM    9  N   UNL     1      -9.013   8.397  73.140  1.00  0.00    -0.291 NA 
HETATM   10  O   UNL     1      -8.936   7.482  74.173  1.00  0.00    -0.233 OA 
HETATM   11  C   UNL     1      -9.047   6.224  73.676  1.00  0.00    -0.128 A  
HETATM   12  C   UNL     1      -9.012   5.045  74.415  1.00  0.00    -0.111 A  
HETATM   13  C   UNL     1      -9.147   3.855  73.693  1.00  0.00    -0.099 A  
HETATM   14  C   UNL     1      -9.297   3.868  72.304  1.00  0.00    -0.173 A  
HETATM   15  C   UNL     1      -9.320   5.076  71.591  1.00  0.00    -0.188 A  
HETATM   16  C   UNL     1      -9.207   6.284  72.300  1.00  0.00    -0.139 A  
ENDBRANCH   7   8
ENDBRANCH   2   7
TORSDOF 2
ENDMDL
MODEL      221
REMARK 921   NORMALIZED FREE ENERGY PREDICTED BY IDOCK:   -2.32 KCAL/MOL
REMARK 922        TOTAL FREE ENERGY PREDICTED BY IDOCK:   -2.99 KCAL/MOL
REMARK 923 INTER-LIGAND FREE ENERGY PREDICTED BY IDOCK:   -3.23 KCAL/MOL
REMARK 924 INTRA-LIGAND FREE ENERGY PREDICTED BY IDOCK:    0.24 KCAL/MOL
REMARK 927      BINDING AFFINITY PREDICTED BY RF-SCORE:    0.00 PKD
ROOT
HETATM    1  N   UNL     1      -8.312  16.965  66.397  1.00  0.00    -0.276 N  
HETATM    2  S   UNL     1      -9.958  16.608  66.457  1.00  0.00    -0.299 S  
HETATM    3  H1  UNL     1      -8.061  16.880  65.412  1.00  0.00     0.000 HD 
HETATM    4  H2  UNL     1      -7.701  17.213  67.175  1.00  0.00     0.000 HD 
HETATM    5  O   UNL     1     -10.312  16.729  67.851  1.00  0.00    -0.293 OA 
HETATM    6  O   UNL     1     -10.529  17.462  65.440  1.00  0.00    -0.648 OA 
ENDROOT
BRANCH   2   7
HETATM    7  C   UNL     1      -9.982  14.893  65.927  1.00  0.00    -0.331 C  
BRANCH   7   8
HETATM    8  C   UNL     1      -9.071  14.032  66.722  1.00  0.00    -0.232 A  
HETATM    9  N   UNL     1      -8.251  14.604  67.619  1.00  0.00    -0.157 NA 
HETATM   10  O   UNL     1      -7.514  13.574  68.173  1.00  0.00    -0.106 OA 
HETATM   11  C   UNL     1      -7.869  12.399  67.596  1.00  0.00    -0.163 A  
HETATM   12  C   UNL     1      -7.339  11.146  67.896  1.00  0.00    -0.092 A  
HETATM   13  C   UNL     1      -7.855  10.065  67.174  1.00  0.00    -0.099 A  
HETATM   14  C   UNL     1      -8.840  10.253  66.202  1.00  0.00    -0.166 A  
HETATM   15  C   UNL     1      -9.346  11.531  65.921  1.00  0.00    -0.242 A  
HETATM   16  C   UNL     1      -8.855  12.628  66.650  1.00  0.00    -0.129 A  
ENDBRANCH   7   8
ENDBRANCH   2   7
TORSDOF 2
ENDMDL
MODEL      222
REMARK 921   NORMALIZED FREE ENERGY PREDICTED BY IDOCK:   -2.32 KCAL/MOL
REMARK 922        TOTAL FREE ENERGY PREDICTED BY IDOCK:   -2.99 KCAL/MOL
REMARK 923 INTER-LIGAND FREE ENERGY PREDICTED BY IDOCK:   -2.69 KCAL/MOL
REMARK 924 INTRA-LIGAND FREE ENERGY PREDICTED BY IDOCK:   -0.30 KCAL/MOL
REMARK 927      BINDING AFFINITY PREDICTED BY RF-SCORE:    0.00 PKD
ROOT
HETATM    1  N   UNL     1      -9.408   8.218  67.712  1.00  0.00    -0.137 N  
HETATM    2  S   UNL     1      -8.624   9.653  68.121  1.00  0.00    -0.119 S  
HETATM    3  H1  UNL     1     -10.400   8.419  67.832  1.00  0.00     0.000 HD 
HETATM    4  H2  UNL     1      -8.982   7.342  67.410  1.00  0.00     0.000 HD 
HETATM    5  O   UNL     1      -7.218   9.369  67.951  1.00  0.00    -0.081 OA 
HETATM    6  O   UNL     1      -9.309  10.652  67.332  1.00  0.00    -0.143 OA 
ENDROOT
BRANCH   2   7
HETATM    7  C   UNL     1      -9.047   9.821  69.858  1.00  0.00    -0.229 C  
BRANCH   7   8
HETATM    8  C   UNL     1      -9.131   8.516  70.559  1.00  0.00    -0.156 A  
HETATM    9  N   UNL     1      -8.009   7.799  70.738  1.00  0.00    -0.099 NA 
HETATM   10  O   UNL     1      -8.396   6.638  71.380  1.00  0.00    -0.119 OA 
HETATM   11  C   UNL     1      -9.741   6.645  71.561  1.00  0.00    -0.164 A  
HETATM   12  C   UNL     1     -10.491   5.642  72.170  1.00  0.00    -0.265 A  
HETATM   13  C   UNL     1     -11.870   5.860  72.250  1.00  0.00    -0.266 A  
HETATM   14  C   UNL     1     -12.447   7.022  71.731  1.00  0.00    -0.393 A  
HETATM   15  C   UNL     1     -11.661   8.008  71.118  1.00  0.00    -0.307 A  
HETATM   16  C   UNL     1     -10.270   7.818  71.045  1.00  0.00    -0.210 A  
ENDBRANCH   7   8
ENDBRANCH   2   7
TORSDOF 2
ENDMDL
MODEL      223
REMARK 921   NORMALIZED FREE ENERGY PREDICTED BY IDOCK:   -2.32 KCAL/MOL
REMARK 922        TOTAL FREE ENERGY PREDICTED BY IDOCK:   -2.99 KCAL/MOL
REMARK 923 INTER-LIGAND FREE ENERGY PREDICTED BY IDOCK:   -2.74 KCAL/MOL
REMARK 924 INTRA-LIGAND FREE ENERGY PREDICTED BY IDOCK:   -0.25 KCAL/MOL
REMARK 927      BINDING AFFINITY PREDICTED BY RF-SCORE:    0.00 PKD
ROOT
HETATM    1  N   UNL     1      -9.043   4.270  69.677  1.00  0.00    -0.103 N  
HETATM    2  S   UNL     1      -8.543   3.932  71.250  1.00  0.00    -0.086 S  
HETATM    3  H1  UNL     1      -9.391   5.228  69.712  1.00  0.00     0.000 HD 
HETATM    4  H2  UNL     1      -9.005   3.652  68.867  1.00  0.00     0.000 HD 
HETATM    5  O   UNL     1      -8.050   2.576  71.200  1.00  0.00    -0.049 OA 
HETATM    6  O   UNL     1      -7.690   5.050  71.584  1.00  0.00    -0.099 OA 
ENDROOT
BRANCH   2   7
HETATM    7  C   UNL     1     -10.090   4.027  72.156  1.00  0.00    -0.163 C  
BRANCH   7   8
HETATM    8  C   UNL     1     -10.407   5.404  72.610  1.00  0.00    -0.203 A  
HETATM    9  N   UNL     1     -10.228   5.722  73.903  1.00  0.00    -0.228 NA 
HETATM   10  O   UNL     1     -10.630   7.039  74.032  1.00  0.00    -0.341 OA 
HETATM   11  C   UNL     1     -11.072   7.499  72.834  1.00  0.00    -0.375 A  
HETATM   12  C   UNL     1     -11.558   8.778  72.577  1.00  0.00    -0.211 A  
HETATM   13  C   UNL     1     -11.961   9.037  71.262  1.00  0.00    -0.374 A  
HETATM   14  C   UNL     1     -11.882   8.049  70.278  1.00  0.00     0.178 A  
HETATM   15  C   UNL     1     -11.393   6.768  70.575  1.00  0.00    -0.394 A  
HETATM   16  C   UNL     1     -10.964   6.494  71.886  1.00  0.00    -0.288 A  
ENDBRANCH   7   8
ENDBRANCH   2   7
TORSDOF 2
ENDMDL
MODEL      224
REMARK 921   NORMALIZED FREE ENERGY PREDICTED BY IDOCK:   -2.30 KCAL/MOL
REMARK 922        TOTAL FREE ENERGY PREDICTED BY IDOCK:   -2.96 KCAL/MOL
REMARK 923 INTER-LIGAND FREE ENERGY PREDICTED BY IDOCK:   -2.69 KCAL/MOL
REMARK 924 INTRA-LIGAND FREE ENERGY PREDICTED BY IDOCK:   -0.27 KCAL/MOL
REMARK 927      BINDING AFFINITY PREDICTED BY RF-SCORE:    0.00 PKD
ROOT
HETATM    1  N   UNL     1     -11.185   4.327  64.782  1.00  0.00    -0.782 N  
HETATM    2  S   UNL     1      -9.893   3.739  63.873  1.00  0.00    -0.186 S  
HETATM    3  H1  UNL     1     -10.959   5.306  64.956  1.00  0.00     0.000 HD 
HETATM    4  H2  UNL     1     -12.011   3.815  65.089  1.00  0.00     0.000 HD 
HETATM    5  O   UNL     1     -10.213   2.353  63.626  1.00  0.00    -0.145 OA 
HETATM    6  O   UNL     1      -9.764   4.702  62.803  1.00  0.00    -0.056 OA 
ENDROOT
BRANCH   2   7
HETATM    7  C   UNL     1      -8.528   3.895  65.030  1.00  0.00    -0.109 C  
BRANCH   7   8
HETATM    8  C   UNL     1      -8.967   3.848  66.447  1.00  0.00    -0.133 A  
HETATM    9  N   UNL     1      -9.269   2.660  66.996  1.00  0.00    -0.145 NA 
HETATM   10  O   UNL     1      -9.669   2.929  68.292  1.00  0.00    -0.127 OA 
HETATM   11  C   UNL     1      -9.633   4.268  68.510  1.00  0.00    -0.136 A  
HETATM   12  C   UNL     1      -9.969   4.914  69.697  1.00  0.00    -0.302 A  
HETATM   13  C   UNL     1      -9.857   6.308  69.699  1.00  0.00    -0.192 A  
HETATM   14  C   UNL     1      -9.439   6.998  68.558  1.00  0.00    -0.134 A  
HETATM   15  C   UNL     1      -9.115   6.314  67.377  1.00  0.00    -0.111 A  
HETATM   16  C   UNL     1      -9.201   4.911  67.361  1.00  0.00    -0.136 A  
ENDBRANCH   7   8
ENDBRANCH   2   7
TORSDOF 2
ENDMDL
MODEL      225
REMARK 921   NORMALIZED FREE ENERGY PREDICTED BY IDOCK:   -2.29 KCAL/MOL
REMARK 922        TOTAL FREE ENERGY PREDICTED BY IDOCK:   -2.96 KCAL/MOL
REMARK 923 INTER-LIGAND FREE ENERGY PREDICTED BY IDOCK:   -2.74 KCAL/MOL
REMARK 924 INTRA-LIGAND FREE ENERGY PREDICTED BY IDOCK:   -0.22 KCAL/MOL
REMARK 927      BINDING AFFINITY PREDICTED BY RF-SCORE:    0.00 PKD
ROOT
HETATM    1  N   UNL     1     -11.282   5.799  66.440  1.00  0.00    -0.744 N  
HETATM    2  S   UNL     1     -10.186   6.863  67.150  1.00  0.00    -0.271 S  
HETATM    3  H1  UNL     1     -12.193   6.242  66.560  1.00  0.00     0.000 HD 
HETATM    4  H2  UNL     1     -11.078   4.908  65.988  1.00  0.00     0.000 HD 
HETATM    5  O   UNL     1      -8.896   6.237  66.980  1.00  0.00    -0.107 OA 
HETATM    6  O   UNL     1     -10.509   8.137  66.548  1.00  0.00    -0.252 OA 
ENDROOT
BRANCH   2   7
HETATM    7  C   UNL     1     -10.702   6.830  68.870  1.00  0.00    -0.240 C  
BRANCH   7   8
HETATM    8  C   UNL     1      -9.594   7.132  69.809  1.00  0.00    -0.155 A  
HETATM    9  N   UNL     1      -9.339   6.276  70.813  1.00  0.00    -0.157 NA 
HETATM   10  O   UNL     1      -8.293   6.828  71.528  1.00  0.00    -0.114 OA 
HETATM   11  C   UNL     1      -7.940   8.016  70.976  1.00  0.00    -0.092 A  
HETATM   12  C   UNL     1      -6.928   8.861  71.425  1.00  0.00    -0.095 A  
HETATM   13  C   UNL     1      -6.737  10.041  70.700  1.00  0.00    -0.074 A  
HETATM   14  C   UNL     1      -7.535  10.345  69.594  1.00  0.00    -0.160 A  
HETATM   15  C   UNL     1      -8.551   9.472  69.174  1.00  0.00    -0.140 A  
HETATM   16  C   UNL     1      -8.746   8.271  69.877  1.00  0.00    -0.134 A  
ENDBRANCH   7   8
ENDBRANCH   2   7
TORSDOF 2
ENDMDL
MODEL      226
REMARK 921   NORMALIZED FREE ENERGY PREDICTED BY IDOCK:   -2.29 KCAL/MOL
REMARK 922        TOTAL FREE ENERGY PREDICTED BY IDOCK:   -2.95 KCAL/MOL
REMARK 923 INTER-LIGAND FREE ENERGY PREDICTED BY IDOCK:   -2.55 KCAL/MOL
REMARK 924 INTRA-LIGAND FREE ENERGY PREDICTED BY IDOCK:   -0.40 KCAL/MOL
REMARK 927      BINDING AFFINITY PREDICTED BY RF-SCORE:    0.00 PKD
ROOT
HETATM    1  N   UNL     1      -8.684  10.640  69.653  1.00  0.00    -0.389 N  
HETATM    2  S   UNL     1      -9.452   9.203  70.082  1.00  0.00    -0.225 S  
HETATM    3  H1  UNL     1      -9.436  11.321  69.557  1.00  0.00     0.000 HD 
HETATM    4  H2  UNL     1      -7.684  10.794  69.520  1.00  0.00     0.000 HD 
HETATM    5  O   UNL     1      -8.386   8.239  70.219  1.00  0.00    -0.117 OA 
HETATM    6  O   UNL     1     -10.293   9.585  71.194  1.00  0.00    -0.308 OA 
ENDROOT
BRANCH   2   7
HETATM    7  C   UNL     1     -10.447   8.869  68.625  1.00  0.00    -0.193 C  
BRANCH   7   8
HETATM    8  C   UNL     1      -9.629   8.656  67.406  1.00  0.00    -0.159 A  
HETATM    9  N   UNL     1      -9.101   9.722  66.781  1.00  0.00    -0.144 NA 
HETATM   10  O   UNL     1      -8.429   9.225  65.680  1.00  0.00    -0.126 OA 
HETATM   11  C   UNL     1      -8.574   7.877  65.629  1.00  0.00    -0.138 A  
HETATM   12  C   UNL     1      -8.040   7.031  64.660  1.00  0.00    -0.083 A  
HETATM   13  C   UNL     1      -8.317   5.668  64.804  1.00  0.00    -0.128 A  
HETATM   14  C   UNL     1      -9.098   5.200  65.863  1.00  0.00    -0.154 A  
HETATM   15  C   UNL     1      -9.626   6.083  66.818  1.00  0.00    -0.171 A  
HETATM   16  C   UNL     1      -9.342   7.454  66.702  1.00  0.00    -0.215 A  
ENDBRANCH   7   8
ENDBRANCH   2   7
TORSDOF 2
ENDMDL
MODEL      227
REMARK 921   NORMALIZED FREE ENERGY PREDICTED BY IDOCK:   -2.27 KCAL/MOL
REMARK 922        TOTAL FREE ENERGY PREDICTED BY IDOCK:   -2.93 KCAL/MOL
REMARK 923 INTER-LIGAND FREE ENERGY PREDICTED BY IDOCK:   -2.72 KCAL/MOL
REMARK 924 INTRA-LIGAND FREE ENERGY PREDICTED BY IDOCK:   -0.21 KCAL/MOL
REMARK 927      BINDING AFFINITY PREDICTED BY RF-SCORE:    0.00 PKD
ROOT
HETATM    1  N   UNL     1     -11.778  14.150  66.317  1.00  0.00    -0.374 N  
HETATM    2  S   UNL     1     -10.403  14.197  67.289  1.00  0.00    -0.269 S  
HETATM    3  H1  UNL     1     -12.239  13.272  66.557  1.00  0.00     0.000 HD 
HETATM    4  H2  UNL     1     -12.083  14.846  65.638  1.00  0.00     0.000 HD 
HETATM    5  O   UNL     1      -9.751  15.440  66.949  1.00  0.00    -0.222 OA 
HETATM    6  O   UNL     1     -10.914  13.933  68.615  1.00  0.00    -0.244 OA 
ENDROOT
BRANCH   2   7
HETATM    7  C   UNL     1      -9.472  12.787  66.680  1.00  0.00    -0.249 C  
BRANCH   7   8
HETATM    8  C   UNL     1      -8.374  12.385  67.592  1.00  0.00    -0.169 A  
HETATM    9  N   UNL     1      -7.194  13.023  67.514  1.00  0.00    -0.153 NA 
HETATM   10  O   UNL     1      -6.372  12.421  68.448  1.00  0.00    -0.051 OA 
HETATM   11  C   UNL     1      -7.042  11.413  69.062  1.00  0.00    -0.117 A  
HETATM   12  C   UNL     1      -6.536  10.579  70.056  1.00  0.00    -0.144 A  
HETATM   13  C   UNL     1      -7.407   9.602  70.550  1.00  0.00    -0.141 A  
HETATM   14  C   UNL     1      -8.706   9.478  70.051  1.00  0.00    -0.242 A  
HETATM   15  C   UNL     1      -9.179  10.331  69.043  1.00  0.00    -0.188 A  
HETATM   16  C   UNL     1      -8.326  11.333  68.548  1.00  0.00    -0.155 A  
ENDBRANCH   7   8
ENDBRANCH   2   7
TORSDOF 2
ENDMDL
MODEL      228
REMARK 921   NORMALIZED FREE ENERGY PREDICTED BY IDOCK:   -2.27 KCAL/MOL
REMARK 922        TOTAL FREE ENERGY PREDICTED BY IDOCK:   -2.93 KCAL/MOL
REMARK 923 INTER-LIGAND FREE ENERGY PREDICTED BY IDOCK:   -2.68 KCAL/MOL
REMARK 924 INTRA-LIGAND FREE ENERGY PREDICTED BY IDOCK:   -0.25 KCAL/MOL
REMARK 927      BINDING AFFINITY PREDICTED BY RF-SCORE:    0.00 PKD
ROOT
HETATM    1  N   UNL     1      -8.635   3.833  67.548  1.00  0.00    -0.099 N  
HETATM    2  S   UNL     1      -8.338   4.183  69.170  1.00  0.00    -0.073 S  
HETATM    3  H1  UNL     1      -8.902   4.725  67.132  1.00  0.00     0.000 HD 
HETATM    4  H2  UNL     1      -8.563   2.927  67.085  1.00  0.00     0.000 HD 
HETATM    5  O   UNL     1      -7.960   2.920  69.758  1.00  0.00    -0.043 OA 
HETATM    6  O   UNL     1      -7.433   5.308  69.114  1.00  0.00    -0.067 OA 
ENDROOT
BRANCH   2   7
HETATM    7  C   UNL     1      -9.959   4.705  69.737  1.00  0.00    -0.225 C  
BRANCH   7   8
HETATM    8  C   UNL     1     -10.072   6.178  69.880  1.00  0.00    -0.178 A  
HETATM    9  N   UNL     1     -10.078   6.714  71.112  1.00  0.00    -0.183 NA 
HETATM   10  O   UNL     1     -10.224   8.077  70.934  1.00  0.00    -0.191 OA 
HETATM   11  C   UNL     1     -10.330   8.354  69.610  1.00  0.00    -0.218 A  
HETATM   12  C   UNL     1     -10.492   9.618  69.047  1.00  0.00    -0.229 A  
HETATM   13  C   UNL     1     -10.579   9.671  67.652  1.00  0.00    -0.334 A  
HETATM   14  C   UNL     1     -10.518   8.507  66.883  1.00  0.00    -0.345 A  
HETATM   15  C   UNL     1     -10.362   7.249  67.484  1.00  0.00    -0.310 A  
HETATM   16  C   UNL     1     -10.252   7.176  68.884  1.00  0.00    -0.188 A  
ENDBRANCH   7   8
ENDBRANCH   2   7
TORSDOF 2
ENDMDL
MODEL      229
REMARK 921   NORMALIZED FREE ENERGY PREDICTED BY IDOCK:   -2.25 KCAL/MOL
REMARK 922        TOTAL FREE ENERGY PREDICTED BY IDOCK:   -2.91 KCAL/MOL
REMARK 923 INTER-LIGAND FREE ENERGY PREDICTED BY IDOCK:   -2.82 KCAL/MOL
REMARK 924 INTRA-LIGAND FREE ENERGY PREDICTED BY IDOCK:   -0.08 KCAL/MOL
REMARK 927      BINDING AFFINITY PREDICTED BY RF-SCORE:    0.00 PKD
ROOT
HETATM    1  N   UNL     1      -7.283   7.221  67.452  1.00  0.00    -0.087 N  
HETATM    2  S   UNL     1      -8.213   8.069  66.332  1.00  0.00    -0.118 S  
HETATM    3  H1  UNL     1      -7.388   6.240  67.190  1.00  0.00     0.000 HD 
HETATM    4  H2  UNL     1      -6.735   7.603  68.222  1.00  0.00     0.000 HD 
HETATM    5  O   UNL     1      -8.064   9.457  66.702  1.00  0.00    -0.107 OA 
HETATM    6  O   UNL     1      -7.761   7.559  65.058  1.00  0.00    -0.101 OA 
ENDROOT
BRANCH   2   7
HETATM    7  C   UNL     1      -9.866   7.472  66.699  1.00  0.00    -0.204 C  
BRANCH   7   8
HETATM    8  C   UNL     1     -10.292   7.775  68.088  1.00  0.00    -0.200 A  
HETATM    9  N   UNL     1     -10.643   9.032  68.403  1.00  0.00    -0.188 NA 
HETATM   10  O   UNL     1     -10.956   9.015  69.750  1.00  0.00    -0.231 OA 
HETATM   11  C   UNL     1     -10.769   7.766  70.244  1.00  0.00    -0.236 A  
HETATM   12  C   UNL     1     -10.979   7.366  71.562  1.00  0.00    -0.255 A  
HETATM   13  C   UNL     1     -10.722   6.022  71.852  1.00  0.00    -0.282 A  
HETATM   14  C   UNL     1     -10.268   5.146  70.862  1.00  0.00    -0.299 A  
HETATM   15  C   UNL     1     -10.061   5.586  69.546  1.00  0.00    -0.305 A  
HETATM   16  C   UNL     1     -10.333   6.928  69.230  1.00  0.00    -0.212 A  
ENDBRANCH   7   8
ENDBRANCH   2   7
TORSDOF 2
ENDMDL
MODEL      230
REMARK 921   NORMALIZED FREE ENERGY PREDICTED BY IDOCK:   -2.21 KCAL/MOL
REMARK 922        TOTAL FREE ENERGY PREDICTED BY IDOCK:   -2.87 KCAL/MOL
REMARK 923 INTER-LIGAND FREE ENERGY PREDICTED BY IDOCK:   -2.67 KCAL/MOL
REMARK 924 INTRA-LIGAND FREE ENERGY PREDICTED BY IDOCK:   -0.20 KCAL/MOL
REMARK 927      BINDING AFFINITY PREDICTED BY RF-SCORE:    0.00 PKD
ROOT
HETATM    1  N   UNL     1     -12.554   8.370  70.879  1.00  0.00    -0.496 N  
HETATM    2  S   UNL     1     -11.044   7.656  70.654  1.00  0.00    -0.256 S  
HETATM    3  H1  UNL     1     -13.090   7.686  71.413  1.00  0.00     0.000 HD 
HETATM    4  H2  UNL     1     -12.863   9.285  70.552  1.00  0.00     0.000 HD 
HETATM    5  O   UNL     1     -10.285   8.624  69.897  1.00  0.00    -0.193 OA 
HETATM    6  O   UNL     1     -10.660   7.246  71.985  1.00  0.00    -0.204 OA 
ENDROOT
BRANCH   2   7
HETATM    7  C   UNL     1     -11.459   6.227  69.649  1.00  0.00    -0.355 C  
BRANCH   7   8
HETATM    8  C   UNL     1     -10.278   5.389  69.325  1.00  0.00    -0.245 A  
HETATM    9  N   UNL     1      -9.854   4.484  70.223  1.00  0.00    -0.220 NA 
HETATM   10  O   UNL     1      -8.738   3.888  69.666  1.00  0.00    -0.070 OA 
HETATM   11  C   UNL     1      -8.479   4.447  68.457  1.00  0.00    -0.092 A  
HETATM   12  C   UNL     1      -7.432   4.106  67.604  1.00  0.00    -0.069 A  
HETATM   13  C   UNL     1      -7.355   4.815  66.401  1.00  0.00    -0.082 A  
HETATM   14  C   UNL     1      -8.280   5.816  66.095  1.00  0.00    -0.111 A  
HETATM   15  C   UNL     1      -9.318   6.138  66.982  1.00  0.00    -0.132 A  
HETATM   16  C   UNL     1      -9.425   5.423  68.188  1.00  0.00    -0.142 A  
ENDBRANCH   7   8
ENDBRANCH   2   7
TORSDOF 2
ENDMDL
MODEL      231
REMARK 921   NORMALIZED FREE ENERGY PREDICTED BY IDOCK:   -2.21 KCAL/MOL
REMARK 922        TOTAL FREE ENERGY PREDICTED BY IDOCK:   -2.86 KCAL/MOL
REMARK 923 INTER-LIGAND FREE ENERGY PREDICTED BY IDOCK:   -2.48 KCAL/MOL
REMARK 924 INTRA-LIGAND FREE ENERGY PREDICTED BY IDOCK:   -0.38 KCAL/MOL
REMARK 927      BINDING AFFINITY PREDICTED BY RF-SCORE:    0.00 PKD
ROOT
HETATM    1  N   UNL     1     -10.481   4.648  67.672  1.00  0.00     0.096 N  
HETATM    2  S   UNL     1      -9.679   6.049  67.188  1.00  0.00    -0.141 S  
HETATM    3  H1  UNL     1     -11.222   4.972  68.294  1.00  0.00     0.000 HD 
HETATM    4  H2  UNL     1     -10.271   3.688  67.402  1.00  0.00     0.000 HD 
HETATM    5  O   UNL     1      -8.631   5.591  66.308  1.00  0.00    -0.118 OA 
HETATM    6  O   UNL     1     -10.746   6.911  66.733  1.00  0.00    -0.297 OA 
ENDROOT
BRANCH   2   7
HETATM    7  C   UNL     1      -9.008   6.645  68.744  1.00  0.00    -0.125 C  
BRANCH   7   8
HETATM    8  C   UNL     1      -9.143   5.659  69.844  1.00  0.00    -0.136 A  
HETATM    9  N   UNL     1      -8.360   4.568  69.841  1.00  0.00    -0.063 NA 
HETATM   10  O   UNL     1      -8.727   3.830  70.951  1.00  0.00    -0.070 OA 
HETATM   11  C   UNL     1      -9.740   4.459  71.600  1.00  0.00    -0.171 A  
HETATM   12  C   UNL     1     -10.372   4.015  72.759  1.00  0.00    -0.239 A  
HETATM   13  C   UNL     1     -11.396   4.826  73.258  1.00  0.00    -0.408 A  
HETATM   14  C   UNL     1     -11.759   6.009  72.609  1.00  0.00    -0.221 A  
HETATM   15  C   UNL     1     -11.104   6.422  71.438  1.00  0.00    -0.328 A  
HETATM   16  C   UNL     1     -10.059   5.631  70.932  1.00  0.00    -0.263 A  
ENDBRANCH   7   8
ENDBRANCH   2   7
TORSDOF 2
ENDMDL
MODEL      232
REMARK 921   NORMALIZED FREE ENERGY PREDICTED BY IDOCK:   -2.19 KCAL/MOL
REMARK 922        TOTAL FREE ENERGY PREDICTED BY IDOCK:   -2.84 KCAL/MOL
REMARK 923 INTER-LIGAND FREE ENERGY PREDICTED BY IDOCK:   -2.42 KCAL/MOL
REMARK 924 INTRA-LIGAND FREE ENERGY PREDICTED BY IDOCK:   -0.42 KCAL/MOL
REMARK 927      BINDING AFFINITY PREDICTED BY RF-SCORE:    0.00 PKD
ROOT
HETATM    1  N   UNL     1      -6.297   7.706  69.032  1.00  0.00    -0.035 N  
HETATM    2  S   UNL     1      -7.210   6.732  68.003  1.00  0.00    -0.094 S  
HETATM    3  H1  UNL     1      -6.509   7.367  69.970  1.00  0.00     0.000 HD 
HETATM    4  H2  UNL     1      -5.669   8.467  68.772  1.00  0.00     0.000 HD 
HETATM    5  O   UNL     1      -6.909   7.211  66.675  1.00  0.00    -0.061 OA 
HETATM    6  O   UNL     1      -6.885   5.389  68.430  1.00  0.00    -0.053 OA 
ENDROOT
BRANCH   2   7
HETATM    7  C   UNL     1      -8.886   7.159  68.484  1.00  0.00    -0.125 C  
BRANCH   7   8
HETATM    8  C   UNL     1      -9.148   8.618  68.423  1.00  0.00    -0.138 A  
HETATM    9  N   UNL     1      -9.067   9.342  69.552  1.00  0.00    -0.154 NA 
HETATM   10  O   UNL     1      -9.388  10.639  69.196  1.00  0.00    -0.196 OA 
HETATM   11  C   UNL     1      -9.685  10.689  67.873  1.00  0.00    -0.161 A  
HETATM   12  C   UNL     1     -10.056  11.824  67.158  1.00  0.00    -0.224 A  
HETATM   13  C   UNL     1     -10.317  11.643  65.796  1.00  0.00    -0.292 A  
HETATM   14  C   UNL     1     -10.216  10.381  65.205  1.00  0.00    -0.332 A  
HETATM   15  C   UNL     1      -9.846   9.257  65.959  1.00  0.00    -0.363 A  
HETATM   16  C   UNL     1      -9.560   9.422  67.325  1.00  0.00    -0.194 A  
ENDBRANCH   7   8
ENDBRANCH   2   7
TORSDOF 2
ENDMDL
MODEL      233
REMARK 921   NORMALIZED FREE ENERGY PREDICTED BY IDOCK:   -2.12 KCAL/MOL
REMARK 922        TOTAL FREE ENERGY PREDICTED BY IDOCK:   -2.77 KCAL/MOL
REMARK 923 INTER-LIGAND FREE ENERGY PREDICTED BY IDOCK:   -2.37 KCAL/MOL
REMARK 924 INTRA-LIGAND FREE ENERGY PREDICTED BY IDOCK:   -0.39 KCAL/MOL
REMARK 927      BINDING AFFINITY PREDICTED BY RF-SCORE:    0.00 PKD
ROOT
HETATM    1  N   UNL     1     -10.770   8.546  67.337  1.00  0.00    -0.465 N  
HETATM    2  S   UNL     1     -10.431   7.177  68.259  1.00  0.00    -0.187 S  
HETATM    3  H1  UNL     1     -10.640   8.250  66.370  1.00  0.00     0.000 HD 
HETATM    4  H2  UNL     1     -11.045   9.469  67.673  1.00  0.00     0.000 HD 
HETATM    5  O   UNL     1     -10.617   7.596  69.628  1.00  0.00    -0.238 OA 
HETATM    6  O   UNL     1     -11.245   6.148  67.652  1.00  0.00    -0.294 OA 
ENDROOT
BRANCH   2   7
HETATM    7  C   UNL     1      -8.695   6.906  67.892  1.00  0.00    -0.121 C  
BRANCH   7   8
HETATM    8  C   UNL     1      -8.447   6.635  66.454  1.00  0.00    -0.125 A  
HETATM    9  N   UNL     1      -8.142   7.661  65.641  1.00  0.00    -0.120 NA 
HETATM   10  O   UNL     1      -7.999   7.117  64.378  1.00  0.00    -0.128 OA 
HETATM   11  C   UNL     1      -8.242   5.783  64.426  1.00  0.00    -0.114 A  
HETATM   12  C   UNL     1      -8.197   4.902  63.349  1.00  0.00    -0.110 A  
HETATM   13  C   UNL     1      -8.484   3.562  63.630  1.00  0.00    -0.090 A  
HETATM   14  C   UNL     1      -8.808   3.151  64.925  1.00  0.00    -0.120 A  
HETATM   15  C   UNL     1      -8.851   4.069  65.986  1.00  0.00    -0.120 A  
HETATM   16  C   UNL     1      -8.546   5.416  65.728  1.00  0.00    -0.139 A  
ENDBRANCH   7   8
ENDBRANCH   2   7
TORSDOF 2
ENDMDL
MODEL      234
REMARK 921   NORMALIZED FREE ENERGY PREDICTED BY IDOCK:   -2.11 KCAL/MOL
REMARK 922        TOTAL FREE ENERGY PREDICTED BY IDOCK:   -2.75 KCAL/MOL
REMARK 923 INTER-LIGAND FREE ENERGY PREDICTED BY IDOCK:   -2.30 KCAL/MOL
REMARK 924 INTRA-LIGAND FREE ENERGY PREDICTED BY IDOCK:   -0.46 KCAL/MOL
REMARK 927      BINDING AFFINITY PREDICTED BY RF-SCORE:    0.00 PKD
ROOT
HETATM    1  N   UNL     1      -9.864  13.394  68.164  1.00  0.00    -0.229 N  
HETATM    2  S   UNL     1      -8.240  13.595  67.762  1.00  0.00    -0.196 S  
HETATM    3  H1  UNL     1      -9.873  12.635  68.845  1.00  0.00     0.000 HD 
HETATM    4  H2  UNL     1     -10.662  13.917  67.805  1.00  0.00     0.000 HD 
HETATM    5  O   UNL     1      -8.227  14.670  66.798  1.00  0.00    -0.146 OA 
HETATM    6  O   UNL     1      -7.583  13.702  69.045  1.00  0.00    -0.064 OA 
ENDROOT
BRANCH   2   7
HETATM    7  C   UNL     1      -7.855  12.022  66.986  1.00  0.00    -0.138 C  
BRANCH   7   8
HETATM    8  C   UNL     1      -8.683  10.906  67.507  1.00  0.00    -0.130 A  
HETATM    9  N   UNL     1      -9.761  10.512  66.809  1.00  0.00    -0.174 NA 
HETATM   10  O   UNL     1     -10.341   9.495  67.544  1.00  0.00    -0.215 OA 
HETATM   11  C   UNL     1      -9.633   9.297  68.685  1.00  0.00    -0.147 A  
HETATM   12  C   UNL     1      -9.918   8.358  69.673  1.00  0.00    -0.193 A  
HETATM   13  C   UNL     1      -9.050   8.328  70.770  1.00  0.00    -0.168 A  
HETATM   14  C   UNL     1      -7.969   9.209  70.856  1.00  0.00    -0.192 A  
HETATM   15  C   UNL     1      -7.717  10.147  69.844  1.00  0.00    -0.171 A  
HETATM   16  C   UNL     1      -8.565  10.179  68.724  1.00  0.00    -0.133 A  
ENDBRANCH   7   8
ENDBRANCH   2   7
TORSDOF 2
ENDMDL
MODEL      235
REMARK 921   NORMALIZED FREE ENERGY PREDICTED BY IDOCK:   -2.11 KCAL/MOL
REMARK 922        TOTAL FREE ENERGY PREDICTED BY IDOCK:   -2.75 KCAL/MOL
REMARK 923 INTER-LIGAND FREE ENERGY PREDICTED BY IDOCK:   -2.61 KCAL/MOL
REMARK 924 INTRA-LIGAND FREE ENERGY PREDICTED BY IDOCK:   -0.14 KCAL/MOL
REMARK 927      BINDING AFFINITY PREDICTED BY RF-SCORE:    0.00 PKD
ROOT
HETATM    1  N   UNL     1      -6.019   3.013  65.467  1.00  0.00    -0.019 N  
HETATM    2  S   UNL     1      -6.941   3.297  66.849  1.00  0.00    -0.054 S  
HETATM    3  H1  UNL     1      -6.161   3.837  64.883  1.00  0.00     0.000 HD 
HETATM    4  H2  UNL     1      -5.443   2.197  65.261  1.00  0.00     0.000 HD 
HETATM    5  O   UNL     1      -6.738   2.131  67.676  1.00  0.00    -0.037 OA 
HETATM    6  O   UNL     1      -6.530   4.618  67.266  1.00  0.00    -0.043 OA 
ENDROOT
BRANCH   2   7
HETATM    7  C   UNL     1      -8.606   3.337  66.179  1.00  0.00    -0.121 C  
BRANCH   7   8
HETATM    8  C   UNL     1      -9.440   4.410  66.774  1.00  0.00    -0.180 A  
HETATM    9  N   UNL     1     -10.003   5.322  65.964  1.00  0.00    -0.150 NA 
HETATM   10  O   UNL     1     -10.682   6.198  66.791  1.00  0.00    -0.291 OA 
HETATM   11  C   UNL     1     -10.507   5.831  68.085  1.00  0.00    -0.217 A  
HETATM   12  C   UNL     1     -11.039   6.476  69.199  1.00  0.00    -0.387 A  
HETATM   13  C   UNL     1     -10.728   5.921  70.445  1.00  0.00    -0.373 A  
HETATM   14  C   UNL     1      -9.918   4.787  70.547  1.00  0.00    -0.306 A  
HETATM   15  C   UNL     1      -9.394   4.167  69.402  1.00  0.00    -0.238 A  
HETATM   16  C   UNL     1      -9.711   4.698  68.140  1.00  0.00    -0.197 A  
ENDBRANCH   7   8
ENDBRANCH   2   7
TORSDOF 2
ENDMDL
MODEL      236
REMARK 921   NORMALIZED FREE ENERGY PREDICTED BY IDOCK:   -2.07 KCAL/MOL
REMARK 922        TOTAL FREE ENERGY PREDICTED BY IDOCK:   -2.71 KCAL/MOL
REMARK 923 INTER-LIGAND FREE ENERGY PREDICTED BY IDOCK:   -2.48 KCAL/MOL
REMARK 924 INTRA-LIGAND FREE ENERGY PREDICTED BY IDOCK:   -0.23 KCAL/MOL
REMARK 927      BINDING AFFINITY PREDICTED BY RF-SCORE:    0.00 PKD
ROOT
HETATM    1  N   UNL     1      -7.022   8.655  68.601  1.00  0.00    -0.063 N  
HETATM    2  S   UNL     1      -7.394   8.300  66.996  1.00  0.00    -0.085 S  
HETATM    3  H1  UNL     1      -7.503   7.939  69.146  1.00  0.00     0.000 HD 
HETATM    4  H2  UNL     1      -6.442   9.417  68.950  1.00  0.00     0.000 HD 
HETATM    5  O   UNL     1      -6.713   9.312  66.225  1.00  0.00    -0.072 OA 
HETATM    6  O   UNL     1      -7.076   6.895  66.875  1.00  0.00    -0.071 OA 
ENDROOT
BRANCH   2   7
HETATM    7  C   UNL     1      -9.172   8.548  66.967  1.00  0.00    -0.152 C  
BRANCH   7   8
HETATM    8  C   UNL     1      -9.561   9.861  66.394  1.00  0.00    -0.200 A  
HETATM    9  N   UNL     1     -10.116   9.899  65.171  1.00  0.00    -0.236 NA 
HETATM   10  O   UNL     1     -10.338  11.236  64.895  1.00  0.00    -0.271 OA 
HETATM   11  C   UNL     1      -9.896  11.994  65.929  1.00  0.00    -0.238 A  
HETATM   12  C   UNL     1      -9.949  13.383  66.009  1.00  0.00    -0.300 A  
HETATM   13  C   UNL     1      -9.433  13.959  67.174  1.00  0.00    -0.246 A  
HETATM   14  C   UNL     1      -8.888  13.168  68.188  1.00  0.00    -0.194 A  
HETATM   15  C   UNL     1      -8.845  11.770  68.071  1.00  0.00    -0.164 A  
HETATM   16  C   UNL     1      -9.376  11.171  66.916  1.00  0.00    -0.189 A  
ENDBRANCH   7   8
ENDBRANCH   2   7
TORSDOF 2
ENDMDL
MODEL      237
REMARK 921   NORMALIZED FREE ENERGY PREDICTED BY IDOCK:   -2.05 KCAL/MOL
REMARK 922        TOTAL FREE ENERGY PREDICTED BY IDOCK:   -2.69 KCAL/MOL
REMARK 923 INTER-LIGAND FREE ENERGY PREDICTED BY IDOCK:   -2.48 KCAL/MOL
REMARK 924 INTRA-LIGAND FREE ENERGY PREDICTED BY IDOCK:   -0.21 KCAL/MOL
REMARK 927      BINDING AFFINITY PREDICTED BY RF-SCORE:    0.00 PKD
ROOT
HETATM    1  N   UNL     1     -11.598   9.838  69.217  1.00  0.00    -0.453 N  
HETATM    2  S   UNL     1     -10.064   9.164  69.036  1.00  0.00    -0.196 S  
HETATM    3  H1  UNL     1     -11.719   9.948  70.224  1.00  0.00     0.000 HD 
HETATM    4  H2  UNL     1     -12.260  10.082  68.481  1.00  0.00     0.000 HD 
HETATM    5  O   UNL     1      -9.893   9.009  67.611  1.00  0.00    -0.157 OA 
HETATM    6  O   UNL     1      -9.217  10.031  69.824  1.00  0.00    -0.219 OA 
ENDROOT
BRANCH   2   7
HETATM    7  C   UNL     1     -10.263   7.573  69.843  1.00  0.00    -0.210 C  
BRANCH   7   8
HETATM    8  C   UNL     1      -9.006   7.078  70.457  1.00  0.00    -0.155 A  
HETATM    9  N   UNL     1      -8.183   6.308  69.726  1.00  0.00    -0.123 NA 
HETATM   10  O   UNL     1      -7.129   5.979  70.559  1.00  0.00    -0.066 OA 
HETATM   11  C   UNL     1      -7.330   6.523  71.785  1.00  0.00    -0.087 A  
HETATM   12  C   UNL     1      -6.483   6.405  72.883  1.00  0.00    -0.064 A  
HETATM   13  C   UNL     1      -6.890   7.051  74.055  1.00  0.00    -0.081 A  
HETATM   14  C   UNL     1      -8.090   7.764  74.104  1.00  0.00    -0.265 A  
HETATM   15  C   UNL     1      -8.923   7.857  72.979  1.00  0.00    -0.286 A  
HETATM   16  C   UNL     1      -8.522   7.230  71.786  1.00  0.00    -0.116 A  
ENDBRANCH   7   8
ENDBRANCH   2   7
TORSDOF 2
ENDMDL
MODEL      238
REMARK 921   NORMALIZED FREE ENERGY PREDICTED BY IDOCK:   -2.02 KCAL/MOL
REMARK 922        TOTAL FREE ENERGY PREDICTED BY IDOCK:   -2.65 KCAL/MOL
REMARK 923 INTER-LIGAND FREE ENERGY PREDICTED BY IDOCK:   -2.41 KCAL/MOL
REMARK 924 INTRA-LIGAND FREE ENERGY PREDICTED BY IDOCK:   -0.24 KCAL/MOL
REMARK 927      BINDING AFFINITY PREDICTED BY RF-SCORE:    0.00 PKD
ROOT
HETATM    1  N   UNL     1      -6.714   4.080  67.208  1.00  0.00    -0.046 N  
HETATM    2  S   UNL     1      -7.211   5.242  68.323  1.00  0.00    -0.068 S  
HETATM    3  H1  UNL     1      -6.869   4.509  66.296  1.00  0.00     0.000 HD 
HETATM    4  H2  UNL     1      -6.339   3.152  67.402  1.00  0.00     0.000 HD 
HETATM    5  O   UNL     1      -6.990   4.634  69.614  1.00  0.00    -0.047 OA 
HETATM    6  O   UNL     1      -6.513   6.436  67.904  1.00  0.00    -0.044 OA 
ENDROOT
BRANCH   2   7
HETATM    7  C   UNL     1      -8.964   5.375  67.958  1.00  0.00    -0.108 C  
BRANCH   7   8
HETATM    8  C   UNL     1      -9.721   6.078  69.024  1.00  0.00    -0.133 A  
HETATM    9  N   UNL     1     -10.655   5.402  69.714  1.00  0.00    -0.313 NA 
HETATM   10  O   UNL     1     -11.206   6.309  70.600  1.00  0.00    -0.300 OA 
HETATM   11  C   UNL     1     -10.627   7.524  70.426  1.00  0.00    -0.229 A  
HETATM   12  C   UNL     1     -10.926   8.683  71.137  1.00  0.00    -0.320 A  
HETATM   13  C   UNL     1     -10.203   9.829  70.790  1.00  0.00    -0.251 A  
HETATM   14  C   UNL     1      -9.244   9.795  69.774  1.00  0.00    -0.248 A  
HETATM   15  C   UNL     1      -8.973   8.609  69.074  1.00  0.00    -0.142 A  
HETATM   16  C   UNL     1      -9.676   7.442  69.421  1.00  0.00    -0.159 A  
ENDBRANCH   7   8
ENDBRANCH   2   7
TORSDOF 2
ENDMDL
MODEL      239
REMARK 921   NORMALIZED FREE ENERGY PREDICTED BY IDOCK:   -2.00 KCAL/MOL
REMARK 922        TOTAL FREE ENERGY PREDICTED BY IDOCK:   -2.64 KCAL/MOL
REMARK 923 INTER-LIGAND FREE ENERGY PREDICTED BY IDOCK:   -2.27 KCAL/MOL
REMARK 924 INTRA-LIGAND FREE ENERGY PREDICTED BY IDOCK:   -0.37 KCAL/MOL
REMARK 927      BINDING AFFINITY PREDICTED BY RF-SCORE:    0.00 PKD
ROOT
HETATM    1  N   UNL     1      -9.204   2.672  68.750  1.00  0.00    -0.153 N  
HETATM    2  S   UNL     1      -7.574   3.058  68.563  1.00  0.00    -0.048 S  
HETATM    3  H1  UNL     1      -9.705   3.527  68.508  1.00  0.00     0.000 HD 
HETATM    4  H2  UNL     1      -9.602   1.780  69.041  1.00  0.00     0.000 HD 
HETATM    5  O   UNL     1      -6.865   1.848  68.905  1.00  0.00    -0.032 OA 
HETATM    6  O   UNL     1      -7.512   3.640  67.241  1.00  0.00    -0.069 OA 
ENDROOT
BRANCH   2   7
HETATM    7  C   UNL     1      -7.349   4.321  69.819  1.00  0.00    -0.050 C  
BRANCH   7   8
HETATM    8  C   UNL     1      -8.618   4.991  70.196  1.00  0.00    -0.098 A  
HETATM    9  N   UNL     1      -9.154   5.892  69.355  1.00  0.00    -0.127 NA 
HETATM   10  O   UNL     1     -10.295   6.363  69.978  1.00  0.00    -0.183 OA 
HETATM   11  C   UNL     1     -10.429   5.771  71.191  1.00  0.00    -0.239 A  
HETATM   12  C   UNL     1     -11.455   5.997  72.105  1.00  0.00    -0.356 A  
HETATM   13  C   UNL     1     -11.394   5.273  73.300  1.00  0.00    -0.318 A  
HETATM   14  C   UNL     1     -10.346   4.384  73.550  1.00  0.00    -0.243 A  
HETATM   15  C   UNL     1      -9.324   4.186  72.609  1.00  0.00    -0.155 A  
HETATM   16  C   UNL     1      -9.378   4.889  71.393  1.00  0.00    -0.199 A  
ENDBRANCH   7   8
ENDBRANCH   2   7
TORSDOF 2
ENDMDL
MODEL      240
REMARK 921   NORMALIZED FREE ENERGY PREDICTED BY IDOCK:   -1.96 KCAL/MOL
REMARK 922        TOTAL FREE ENERGY PREDICTED BY IDOCK:   -2.59 KCAL/MOL
REMARK 923 INTER-LIGAND FREE ENERGY PREDICTED BY IDOCK:   -2.49 KCAL/MOL
REMARK 924 INTRA-LIGAND FREE ENERGY PREDICTED BY IDOCK:   -0.10 KCAL/MOL
REMARK 927      BINDING AFFINITY PREDICTED BY RF-SCORE:    0.00 PKD
ROOT
HETATM    1  N   UNL     1      -7.598   7.185  69.045  1.00  0.00    -0.098 N  
HETATM    2  S   UNL     1      -7.593   5.589  68.503  1.00  0.00    -0.085 S  
HETATM    3  H1  UNL     1      -6.781   7.258  69.652  1.00  0.00     0.000 HD 
HETATM    4  H2  UNL     1      -8.269   7.918  68.815  1.00  0.00     0.000 HD 
HETATM    5  O   UNL     1      -8.748   5.487  67.643  1.00  0.00    -0.109 OA 
HETATM    6  O   UNL     1      -6.247   5.401  68.011  1.00  0.00    -0.031 OA 
ENDROOT
BRANCH   2   7
HETATM    7  C   UNL     1      -7.838   4.682  70.033  1.00  0.00    -0.060 C  
BRANCH   7   8
HETATM    8  C   UNL     1      -8.245   5.555  71.161  1.00  0.00    -0.120 A  
HETATM    9  N   UNL     1      -7.407   5.711  72.199  1.00  0.00    -0.089 NA 
HETATM   10  O   UNL     1      -8.059   6.539  73.095  1.00  0.00    -0.107 OA 
HETATM   11  C   UNL     1      -9.287   6.855  72.611  1.00  0.00    -0.138 A  
HETATM   12  C   UNL     1     -10.230   7.666  73.237  1.00  0.00    -0.398 A  
HETATM   13  C   UNL     1     -11.435   7.858  72.554  1.00  0.00    -0.455 A  
HETATM   14  C   UNL     1     -11.666   7.251  71.317  1.00  0.00    -0.328 A  
HETATM   15  C   UNL     1     -10.695   6.434  70.719  1.00  0.00    -0.302 A  
HETATM   16  C   UNL     1      -9.469   6.245  71.380  1.00  0.00    -0.167 A  
ENDBRANCH   7   8
ENDBRANCH   2   7
TORSDOF 2
ENDMDL
MODEL      241
REMARK 921   NORMALIZED FREE ENERGY PREDICTED BY IDOCK:   -1.95 KCAL/MOL
REMARK 922        TOTAL FREE ENERGY PREDICTED BY IDOCK:   -2.58 KCAL/MOL
REMARK 923 INTER-LIGAND FREE ENERGY PREDICTED BY IDOCK:   -2.66 KCAL/MOL
REMARK 924 INTRA-LIGAND FREE ENERGY PREDICTED BY IDOCK:    0.09 KCAL/MOL
REMARK 927      BINDING AFFINITY PREDICTED BY RF-SCORE:    0.00 PKD
ROOT
HETATM    1  N   UNL     1      -8.830   3.937  66.409  1.00  0.00    -0.119 N  
HETATM    2  S   UNL     1      -8.701   4.044  68.086  1.00  0.00    -0.107 S  
HETATM    3  H1  UNL     1      -8.300   4.733  66.054  1.00  0.00     0.000 HD 
HETATM    4  H2  UNL     1      -9.329   3.231  65.868  1.00  0.00     0.000 HD 
HETATM    5  O   UNL     1      -9.451   2.917  68.588  1.00  0.00    -0.184 OA 
HETATM    6  O   UNL     1      -7.279   4.184  68.308  1.00  0.00    -0.058 OA 
ENDROOT
BRANCH   2   7
HETATM    7  C   UNL     1      -9.547   5.591  68.423  1.00  0.00    -0.124 C  
BRANCH   7   8
HETATM    8  C   UNL     1      -9.581   5.925  69.868  1.00  0.00    -0.158 A  
HETATM    9  N   UNL     1      -8.724   5.310  70.700  1.00  0.00    -0.124 NA 
HETATM   10  O   UNL     1      -9.007   5.791  71.964  1.00  0.00    -0.138 OA 
HETATM   11  C   UNL     1     -10.041   6.667  71.897  1.00  0.00    -0.181 A  
HETATM   12  C   UNL     1     -10.607   7.352  72.969  1.00  0.00    -0.392 A  
HETATM   13  C   UNL     1     -11.670   8.209  72.668  1.00  0.00    -0.419 A  
HETATM   14  C   UNL     1     -12.133   8.349  71.358  1.00  0.00    -0.337 A  
HETATM   15  C   UNL     1     -11.543   7.637  70.302  1.00  0.00    -0.079 A  
HETATM   16  C   UNL     1     -10.460   6.786  70.581  1.00  0.00    -0.243 A  
ENDBRANCH   7   8
ENDBRANCH   2   7
TORSDOF 2
ENDMDL
MODEL      242
REMARK 921   NORMALIZED FREE ENERGY PREDICTED BY IDOCK:   -1.94 KCAL/MOL
REMARK 922        TOTAL FREE ENERGY PREDICTED BY IDOCK:   -2.57 KCAL/MOL
REMARK 923 INTER-LIGAND FREE ENERGY PREDICTED BY IDOCK:   -2.42 KCAL/MOL
REMARK 924 INTRA-LIGAND FREE ENERGY PREDICTED BY IDOCK:   -0.15 KCAL/MOL
REMARK 927      BINDING AFFINITY PREDICTED BY RF-SCORE:    0.00 PKD
ROOT
HETATM    1  N   UNL     1      -8.653  10.123  69.902  1.00  0.00    -0.364 N  
HETATM    2  S   UNL     1      -9.855  10.604  68.824  1.00  0.00    -0.198 S  
HETATM    3  H1  UNL     1      -7.777  10.407  69.463  1.00  0.00     0.000 HD 
HETATM    4  H2  UNL     1      -8.774   9.652  70.798  1.00  0.00     0.000 HD 
HETATM    5  O   UNL     1     -11.094  10.202  69.446  1.00  0.00    -0.232 OA 
HETATM    6  O   UNL     1      -9.540  11.989  68.558  1.00  0.00    -0.198 OA 
ENDROOT
BRANCH   2   7
HETATM    7  C   UNL     1      -9.490   9.588  67.389  1.00  0.00    -0.135 C  
BRANCH   7   8
HETATM    8  C   UNL     1      -9.872   8.167  67.578  1.00  0.00    -0.177 A  
HETATM    9  N   UNL     1     -11.101   7.768  67.212  1.00  0.00     0.024 NA 
HETATM   10  O   UNL     1     -11.178   6.425  67.532  1.00  0.00    -0.347 OA 
HETATM   11  C   UNL     1     -10.016   6.027  68.108  1.00  0.00    -0.147 A  
HETATM   12  C   UNL     1      -9.724   4.745  68.564  1.00  0.00    -0.215 A  
HETATM   13  C   UNL     1      -8.457   4.558  69.127  1.00  0.00    -0.091 A  
HETATM   14  C   UNL     1      -7.551   5.617  69.227  1.00  0.00    -0.087 A  
HETATM   15  C   UNL     1      -7.882   6.899  68.763  1.00  0.00    -0.118 A  
HETATM   16  C   UNL     1      -9.143   7.102  68.176  1.00  0.00    -0.133 A  
ENDBRANCH   7   8
ENDBRANCH   2   7
TORSDOF 2
ENDMDL
MODEL      243
REMARK 921   NORMALIZED FREE ENERGY PREDICTED BY IDOCK:   -1.89 KCAL/MOL
REMARK 922        TOTAL FREE ENERGY PREDICTED BY IDOCK:   -2.50 KCAL/MOL
REMARK 923 INTER-LIGAND FREE ENERGY PREDICTED BY IDOCK:   -2.13 KCAL/MOL
REMARK 924 INTRA-LIGAND FREE ENERGY PREDICTED BY IDOCK:   -0.38 KCAL/MOL
REMARK 927      BINDING AFFINITY PREDICTED BY RF-SCORE:    0.00 PKD
ROOT
HETATM    1  N   UNL     1      -7.651   7.227  68.025  1.00  0.00    -0.112 N  
HETATM    2  S   UNL     1      -8.785   8.253  67.319  1.00  0.00    -0.124 S  
HETATM    3  H1  UNL     1      -7.368   6.594  67.277  1.00  0.00     0.000 HD 
HETATM    4  H2  UNL     1      -7.319   7.237  68.990  1.00  0.00     0.000 HD 
HETATM    5  O   UNL     1      -9.184   9.150  68.378  1.00  0.00    -0.133 OA 
HETATM    6  O   UNL     1      -8.123   8.721  66.123  1.00  0.00    -0.103 OA 
ENDROOT
BRANCH   2   7
HETATM    7  C   UNL     1     -10.106   7.110  66.903  1.00  0.00    -0.238 C  
BRANCH   7   8
HETATM    8  C   UNL     1      -9.851   5.733  67.393  1.00  0.00    -0.138 A  
HETATM    9  N   UNL     1      -9.879   5.496  68.715  1.00  0.00    -0.142 NA 
HETATM   10  O   UNL     1      -9.579   4.155  68.868  1.00  0.00    -0.167 OA 
HETATM   11  C   UNL     1      -9.347   3.598  67.653  1.00  0.00    -0.200 A  
HETATM   12  C   UNL     1      -9.013   2.268  67.410  1.00  0.00    -0.180 A  
HETATM   13  C   UNL     1      -8.817   1.910  66.073  1.00  0.00    -0.121 A  
HETATM   14  C   UNL     1      -8.943   2.853  65.049  1.00  0.00    -0.136 A  
HETATM   15  C   UNL     1      -9.274   4.187  65.331  1.00  0.00    -0.151 A  
HETATM   16  C   UNL     1      -9.495   4.562  66.668  1.00  0.00    -0.183 A  
ENDBRANCH   7   8
ENDBRANCH   2   7
TORSDOF 2
ENDMDL
MODEL      244
REMARK 921   NORMALIZED FREE ENERGY PREDICTED BY IDOCK:   -1.84 KCAL/MOL
REMARK 922        TOTAL FREE ENERGY PREDICTED BY IDOCK:   -2.45 KCAL/MOL
REMARK 923 INTER-LIGAND FREE ENERGY PREDICTED BY IDOCK:   -2.28 KCAL/MOL
REMARK 924 INTRA-LIGAND FREE ENERGY PREDICTED BY IDOCK:   -0.17 KCAL/MOL
REMARK 927      BINDING AFFINITY PREDICTED BY RF-SCORE:    0.00 PKD
ROOT
HETATM    1  N   UNL     1      -7.369   2.586  66.226  1.00  0.00    -0.065 N  
HETATM    2  S   UNL     1      -8.187   3.351  67.485  1.00  0.00    -0.086 S  
HETATM    3  H1  UNL     1      -7.115   3.336  65.584  1.00  0.00     0.000 HD 
HETATM    4  H2  UNL     1      -7.171   1.590  66.128  1.00  0.00     0.000 HD 
HETATM    5  O   UNL     1      -8.546   2.288  68.394  1.00  0.00    -0.068 OA 
HETATM    6  O   UNL     1      -7.296   4.423  67.867  1.00  0.00    -0.067 OA 
ENDROOT
BRANCH   2   7
HETATM    7  C   UNL     1      -9.633   4.002  66.643  1.00  0.00    -0.209 C  
BRANCH   7   8
HETATM    8  C   UNL     1      -9.825   5.456  66.870  1.00  0.00    -0.166 A  
HETATM    9  N   UNL     1     -10.741   5.860  67.766  1.00  0.00    -0.269 NA 
HETATM   10  O   UNL     1     -10.717   7.242  67.739  1.00  0.00    -0.225 OA 
HETATM   11  C   UNL     1      -9.815   7.664  66.817  1.00  0.00    -0.237 A  
HETATM   12  C   UNL     1      -9.519   8.989  66.507  1.00  0.00    -0.266 A  
HETATM   13  C   UNL     1      -8.550   9.194  65.519  1.00  0.00    -0.192 A  
HETATM   14  C   UNL     1      -7.933   8.115  64.881  1.00  0.00    -0.145 A  
HETATM   15  C   UNL     1      -8.263   6.793  65.214  1.00  0.00    -0.127 A  
HETATM   16  C   UNL     1      -9.219   6.565  66.219  1.00  0.00    -0.160 A  
ENDBRANCH   7   8
ENDBRANCH   2   7
TORSDOF 2
ENDMDL
MODEL      245
REMARK 921   NORMALIZED FREE ENERGY PREDICTED BY IDOCK:   -1.82 KCAL/MOL
REMARK 922        TOTAL FREE ENERGY PREDICTED BY IDOCK:   -2.43 KCAL/MOL
REMARK 923 INTER-LIGAND FREE ENERGY PREDICTED BY IDOCK:   -2.03 KCAL/MOL
REMARK 924 INTRA-LIGAND FREE ENERGY PREDICTED BY IDOCK:   -0.40 KCAL/MOL
REMARK 927      BINDING AFFINITY PREDICTED BY RF-SCORE:    0.00 PKD
ROOT
HETATM    1  N   UNL     1      -7.820   6.038  66.516  1.00  0.00    -0.103 N  
HETATM    2  S   UNL     1      -7.565   6.365  64.883  1.00  0.00    -0.100 S  
HETATM    3  H1  UNL     1      -8.830   6.113  66.644  1.00  0.00     0.000 HD 
HETATM    4  H2  UNL     1      -7.120   5.814  67.222  1.00  0.00     0.000 HD 
HETATM    5  O   UNL     1      -6.136   6.258  64.703  1.00  0.00    -0.028 OA 
HETATM    6  O   UNL     1      -8.494   5.486  64.211  1.00  0.00    -0.135 OA 
ENDROOT
BRANCH   2   7
HETATM    7  C   UNL     1      -8.109   8.071  64.760  1.00  0.00    -0.143 C  
BRANCH   7   8
HETATM    8  C   UNL     1      -8.041   8.792  66.055  1.00  0.00    -0.112 A  
HETATM    9  N   UNL     1      -6.855   8.908  66.675  1.00  0.00    -0.075 NA 
HETATM   10  O   UNL     1      -7.105   9.588  67.853  1.00  0.00    -0.079 OA 
HETATM   11  C   UNL     1      -8.432   9.854  67.952  1.00  0.00    -0.121 A  
HETATM   12  C   UNL     1      -9.057  10.522  69.002  1.00  0.00    -0.188 A  
HETATM   13  C   UNL     1     -10.442  10.687  68.895  1.00  0.00    -0.232 A  
HETATM   14  C   UNL     1     -11.144  10.192  67.793  1.00  0.00    -0.293 A  
HETATM   15  C   UNL     1     -10.481   9.518  66.757  1.00  0.00    -0.263 A  
HETATM   16  C   UNL     1      -9.086   9.359  66.835  1.00  0.00    -0.160 A  
ENDBRANCH   7   8
ENDBRANCH   2   7
TORSDOF 2
ENDMDL
MODEL      246
REMARK 921   NORMALIZED FREE ENERGY PREDICTED BY IDOCK:   -1.79 KCAL/MOL
REMARK 922        TOTAL FREE ENERGY PREDICTED BY IDOCK:   -2.39 KCAL/MOL
REMARK 923 INTER-LIGAND FREE ENERGY PREDICTED BY IDOCK:   -2.19 KCAL/MOL
REMARK 924 INTRA-LIGAND FREE ENERGY PREDICTED BY IDOCK:   -0.20 KCAL/MOL
REMARK 927      BINDING AFFINITY PREDICTED BY RF-SCORE:    0.00 PKD
ROOT
HETATM    1  N   UNL     1     -10.959   7.459  67.378  1.00  0.00    -0.555 N  
HETATM    2  S   UNL     1     -10.040   6.822  68.639  1.00  0.00    -0.167 S  
HETATM    3  H1  UNL     1     -11.128   6.671  66.753  1.00  0.00     0.000 HD 
HETATM    4  H2  UNL     1     -11.276   8.422  67.265  1.00  0.00     0.000 HD 
HETATM    5  O   UNL     1      -9.801   7.937  69.524  1.00  0.00    -0.172 OA 
HETATM    6  O   UNL     1     -10.791   5.658  69.052  1.00  0.00    -0.265 OA 
ENDROOT
BRANCH   2   7
HETATM    7  C   UNL     1      -8.537   6.333  67.789  1.00  0.00    -0.115 C  
BRANCH   7   8
HETATM    8  C   UNL     1      -8.349   4.861  67.752  1.00  0.00    -0.104 A  
HETATM    9  N   UNL     1      -7.716   4.260  68.773  1.00  0.00    -0.066 NA 
HETATM   10  O   UNL     1      -7.663   2.916  68.451  1.00  0.00    -0.055 OA 
HETATM   11  C   UNL     1      -8.234   2.717  67.236  1.00  0.00    -0.080 A  
HETATM   12  C   UNL     1      -8.363   1.494  66.582  1.00  0.00    -0.085 A  
HETATM   13  C   UNL     1      -8.989   1.522  65.331  1.00  0.00    -0.121 A  
HETATM   14  C   UNL     1      -9.444   2.722  64.780  1.00  0.00    -0.128 A  
HETATM   15  C   UNL     1      -9.291   3.937  65.466  1.00  0.00    -0.160 A  
HETATM   16  C   UNL     1      -8.683   3.928  66.733  1.00  0.00    -0.116 A  
ENDBRANCH   7   8
ENDBRANCH   2   7
TORSDOF 2
ENDMDL
MODEL      247
REMARK 921   NORMALIZED FREE ENERGY PREDICTED BY IDOCK:   -1.77 KCAL/MOL
REMARK 922        TOTAL FREE ENERGY PREDICTED BY IDOCK:   -2.38 KCAL/MOL
REMARK 923 INTER-LIGAND FREE ENERGY PREDICTED BY IDOCK:   -2.16 KCAL/MOL
REMARK 924 INTRA-LIGAND FREE ENERGY PREDICTED BY IDOCK:   -0.21 KCAL/MOL
REMARK 927      BINDING AFFINITY PREDICTED BY RF-SCORE:    0.00 PKD
ROOT
HETATM    1  N   UNL     1      -6.528   6.211  70.989  1.00  0.00    -0.047 N  
HETATM    2  S   UNL     1      -7.803   5.732  71.981  1.00  0.00    -0.107 S  
HETATM    3  H1  UNL     1      -6.855   7.064  70.535  1.00  0.00     0.000 HD 
HETATM    4  H2  UNL     1      -5.626   5.750  70.869  1.00  0.00     0.000 HD 
HETATM    5  O   UNL     1      -7.339   4.525  72.624  1.00  0.00    -0.077 OA 
HETATM    6  O   UNL     1      -8.122   6.928  72.726  1.00  0.00    -0.107 OA 
ENDROOT
BRANCH   2   7
HETATM    7  C   UNL     1      -9.089   5.375  70.780  1.00  0.00    -0.141 C  
BRANCH   7   8
HETATM    8  C   UNL     1      -9.814   6.591  70.335  1.00  0.00    -0.175 A  
HETATM    9  N   UNL     1     -10.927   6.963  70.991  1.00  0.00    -0.244 NA 
HETATM   10  O   UNL     1     -11.392   8.092  70.342  1.00  0.00    -0.259 OA 
HETATM   11  C   UNL     1     -10.583   8.380  69.292  1.00  0.00    -0.182 A  
HETATM   12  C   UNL     1     -10.737   9.443  68.406  1.00  0.00    -0.213 A  
HETATM   13  C   UNL     1      -9.780   9.550  67.391  1.00  0.00    -0.201 A  
HETATM   14  C   UNL     1      -8.739   8.624  67.283  1.00  0.00    -0.133 A  
HETATM   15  C   UNL     1      -8.619   7.561  68.190  1.00  0.00    -0.123 A  
HETATM   16  C   UNL     1      -9.560   7.447  69.229  1.00  0.00    -0.154 A  
ENDBRANCH   7   8
ENDBRANCH   2   7
TORSDOF 2
ENDMDL
MODEL      248
REMARK 921   NORMALIZED FREE ENERGY PREDICTED BY IDOCK:   -1.73 KCAL/MOL
REMARK 922        TOTAL FREE ENERGY PREDICTED BY IDOCK:   -2.33 KCAL/MOL
REMARK 923 INTER-LIGAND FREE ENERGY PREDICTED BY IDOCK:   -1.95 KCAL/MOL
REMARK 924 INTRA-LIGAND FREE ENERGY PREDICTED BY IDOCK:   -0.37 KCAL/MOL
REMARK 927      BINDING AFFINITY PREDICTED BY RF-SCORE:    0.00 PKD
ROOT
HETATM    1  N   UNL     1      -7.234   4.930  70.373  1.00  0.00    -0.052 N  
HETATM    2  S   UNL     1      -8.359   4.004  71.218  1.00  0.00    -0.081 S  
HETATM    3  H1  UNL     1      -7.458   5.897  70.611  1.00  0.00     0.000 HD 
HETATM    4  H2  UNL     1      -6.491   4.598  69.759  1.00  0.00     0.000 HD 
HETATM    5  O   UNL     1      -8.042   2.637  70.881  1.00  0.00    -0.049 OA 
HETATM    6  O   UNL     1      -8.267   4.506  72.570  1.00  0.00    -0.105 OA 
ENDROOT
BRANCH   2   7
HETATM    7  C   UNL     1      -9.903   4.518  70.459  1.00  0.00    -0.227 C  
BRANCH   7   8
HETATM    8  C   UNL     1      -9.729   4.987  69.061  1.00  0.00    -0.170 A  
HETATM    9  N   UNL     1      -9.885   6.293  68.787  1.00  0.00    -0.134 NA 
HETATM   10  O   UNL     1      -9.697   6.421  67.423  1.00  0.00    -0.116 OA 
HETATM   11  C   UNL     1      -9.457   5.201  66.880  1.00  0.00    -0.139 A  
HETATM   12  C   UNL     1      -9.223   4.936  65.533  1.00  0.00    -0.160 A  
HETATM   13  C   UNL     1      -8.998   3.598  65.194  1.00  0.00    -0.133 A  
HETATM   14  C   UNL     1      -9.021   2.595  66.166  1.00  0.00    -0.139 A  
HETATM   15  C   UNL     1      -9.268   2.898  67.513  1.00  0.00    -0.233 A  
HETATM   16  C   UNL     1      -9.476   4.240  67.878  1.00  0.00    -0.216 A  
ENDBRANCH   7   8
ENDBRANCH   2   7
TORSDOF 2
ENDMDL
MODEL      249
REMARK 921   NORMALIZED FREE ENERGY PREDICTED BY IDOCK:   -1.73 KCAL/MOL
REMARK 922        TOTAL FREE ENERGY PREDICTED BY IDOCK:   -2.33 KCAL/MOL
REMARK 923 INTER-LIGAND FREE ENERGY PREDICTED BY IDOCK:   -1.97 KCAL/MOL
REMARK 924 INTRA-LIGAND FREE ENERGY PREDICTED BY IDOCK:   -0.36 KCAL/MOL
REMARK 927      BINDING AFFINITY PREDICTED BY RF-SCORE:    0.00 PKD
ROOT
HETATM    1  N   UNL     1     -10.812   8.560  67.351  1.00  0.00    -0.472 N  
HETATM    2  S   UNL     1     -10.500   7.221  68.326  1.00  0.00    -0.180 S  
HETATM    3  H1  UNL     1     -10.578   8.256  66.406  1.00  0.00     0.000 HD 
HETATM    4  H2  UNL     1     -11.160   9.473  67.642  1.00  0.00     0.000 HD 
HETATM    5  O   UNL     1     -10.832   7.651  69.663  1.00  0.00    -0.242 OA 
HETATM    6  O   UNL     1     -11.206   6.147  67.664  1.00  0.00    -0.294 OA 
ENDROOT
BRANCH   2   7
HETATM    7  C   UNL     1      -8.726   7.027  68.127  1.00  0.00    -0.127 C  
BRANCH   7   8
HETATM    8  C   UNL     1      -7.947   7.959  68.979  1.00  0.00    -0.122 A  
HETATM    9  N   UNL     1      -7.679   9.193  68.520  1.00  0.00    -0.092 NA 
HETATM   10  O   UNL     1      -6.924   9.809  69.500  1.00  0.00    -0.053 OA 
HETATM   11  C   UNL     1      -6.718   8.946  70.526  1.00  0.00    -0.051 A  
HETATM   12  C   UNL     1      -5.999   9.212  71.689  1.00  0.00    -0.072 A  
HETATM   13  C   UNL     1      -5.913   8.170  72.618  1.00  0.00    -0.059 A  
HETATM   14  C   UNL     1      -6.513   6.933  72.370  1.00  0.00    -0.057 A  
HETATM   15  C   UNL     1      -7.224   6.698  71.183  1.00  0.00    -0.078 A  
HETATM   16  C   UNL     1      -7.339   7.739  70.245  1.00  0.00    -0.067 A  
ENDBRANCH   7   8
ENDBRANCH   2   7
TORSDOF 2
ENDMDL
MODEL      250
REMARK 921   NORMALIZED FREE ENERGY PREDICTED BY IDOCK:   -1.68 KCAL/MOL
REMARK 922        TOTAL FREE ENERGY PREDICTED BY IDOCK:   -2.28 KCAL/MOL
REMARK 923 INTER-LIGAND FREE ENERGY PREDICTED BY IDOCK:   -2.12 KCAL/MOL
REMARK 924 INTRA-LIGAND FREE ENERGY PREDICTED BY IDOCK:   -0.16 KCAL/MOL
REMARK 927      BINDING AFFINITY PREDICTED BY RF-SCORE:    0.00 PKD
ROOT
HETATM    1  N   UNL     1     -11.598   9.838  69.217  1.00  0.00    -0.453 N  
HETATM    2  S   UNL     1     -10.064   9.164  69.036  1.00  0.00    -0.196 S  
HETATM    3  H1  UNL     1     -11.719   9.948  70.224  1.00  0.00     0.000 HD 
HETATM    4  H2  UNL     1     -12.260  10.082  68.481  1.00  0.00     0.000 HD 
HETATM    5  O   UNL     1      -9.893   9.009  67.611  1.00  0.00    -0.157 OA 
HETATM    6  O   UNL     1      -9.217  10.031  69.824  1.00  0.00    -0.219 OA 
ENDROOT
BRANCH   2   7
HETATM    7  C   UNL     1     -10.263   7.573  69.843  1.00  0.00    -0.210 C  
BRANCH   7   8
HETATM    8  C   UNL     1      -9.673   6.455  69.066  1.00  0.00    -0.134 A  
HETATM    9  N   UNL     1     -10.441   5.804  68.176  1.00  0.00    -0.212 NA 
HETATM   10  O   UNL     1      -9.642   4.811  67.638  1.00  0.00    -0.139 OA 
HETATM   11  C   UNL     1      -8.416   4.849  68.218  1.00  0.00    -0.098 A  
HETATM   12  C   UNL     1      -7.349   4.001  67.934  1.00  0.00    -0.067 A  
HETATM   13  C   UNL     1      -6.171   4.222  68.655  1.00  0.00    -0.032 A  
HETATM   14  C   UNL     1      -6.093   5.235  69.613  1.00  0.00    -0.021 A  
HETATM   15  C   UNL     1      -7.191   6.067  69.879  1.00  0.00    -0.074 A  
HETATM   16  C   UNL     1      -8.378   5.875  69.150  1.00  0.00    -0.106 A  
ENDBRANCH   7   8
ENDBRANCH   2   7
TORSDOF 2
ENDMDL
MODEL      251
REMARK 921   NORMALIZED FREE ENERGY PREDICTED BY IDOCK:   -1.61 KCAL/MOL
REMARK 922        TOTAL FREE ENERGY PREDICTED BY IDOCK:   -2.19 KCAL/MOL
REMARK 923 INTER-LIGAND FREE ENERGY PREDICTED BY IDOCK:   -1.96 KCAL/MOL
REMARK 924 INTRA-LIGAND FREE ENERGY PREDICTED BY IDOCK:   -0.23 KCAL/MOL
REMARK 927      BINDING AFFINITY PREDICTED BY RF-SCORE:    0.00 PKD
ROOT
HETATM    1  N   UNL     1     -10.770   8.546  67.338  1.00  0.00    -0.465 N  
HETATM    2  S   UNL     1     -10.431   7.177  68.260  1.00  0.00    -0.187 S  
HETATM    3  H1  UNL     1     -10.638   8.250  66.371  1.00  0.00     0.000 HD 
HETATM    4  H2  UNL     1     -11.048   9.468  67.673  1.00  0.00     0.000 HD 
HETATM    5  O   UNL     1     -10.619   7.597  69.629  1.00  0.00    -0.238 OA 
HETATM    6  O   UNL     1     -11.243   6.148  67.651  1.00  0.00    -0.294 OA 
ENDROOT
BRANCH   2   7
HETATM    7  C   UNL     1      -8.694   6.909  67.895  1.00  0.00    -0.121 C  
BRANCH   7   8
HETATM    8  C   UNL     1      -7.794   7.720  68.752  1.00  0.00    -0.123 A  
HETATM    9  N   UNL     1      -7.320   7.184  69.889  1.00  0.00    -0.082 NA 
HETATM   10  O   UNL     1      -6.549   8.167  70.482  1.00  0.00    -0.036 OA 
HETATM   11  C   UNL     1      -6.581   9.291  69.722  1.00  0.00    -0.043 A  
HETATM   12  C   UNL     1      -5.927  10.488  70.001  1.00  0.00    -0.080 A  
HETATM   13  C   UNL     1      -6.100  11.521  69.074  1.00  0.00    -0.055 A  
HETATM   14  C   UNL     1      -6.899  11.346  67.941  1.00  0.00    -0.072 A  
HETATM   15  C   UNL     1      -7.550  10.127  67.696  1.00  0.00    -0.090 A  
HETATM   16  C   UNL     1      -7.372   9.070  68.605  1.00  0.00    -0.077 A  
ENDBRANCH   7   8
ENDBRANCH   2   7
TORSDOF 2
ENDMDL
MODEL      252
REMARK 921   NORMALIZED FREE ENERGY PREDICTED BY IDOCK:   -1.60 KCAL/MOL
REMARK 922        TOTAL FREE ENERGY PREDICTED BY IDOCK:   -2.18 KCAL/MOL
REMARK 923 INTER-LIGAND FREE ENERGY PREDICTED BY IDOCK:   -1.94 KCAL/MOL
REMARK 924 INTRA-LIGAND FREE ENERGY PREDICTED BY IDOCK:   -0.24 KCAL/MOL
REMARK 927      BINDING AFFINITY PREDICTED BY RF-SCORE:    0.00 PKD
ROOT
HETATM    1  N   UNL     1     -10.297   9.174  67.382  1.00  0.00    -0.247 N  
HETATM    2  S   UNL     1     -10.360   7.752  68.285  1.00  0.00    -0.177 S  
HETATM    3  H1  UNL     1      -9.924   8.892  66.476  1.00  0.00     0.000 HD 
HETATM    4  H2  UNL     1     -10.572  10.110  67.677  1.00  0.00     0.000 HD 
HETATM    5  O   UNL     1     -10.890   8.151  69.567  1.00  0.00    -0.213 OA 
HETATM    6  O   UNL     1     -11.057   6.829  67.417  1.00  0.00    -0.328 OA 
ENDROOT
BRANCH   2   7
HETATM    7  C   UNL     1      -8.623   7.315  68.405  1.00  0.00    -0.124 C  
BRANCH   7   8
HETATM    8  C   UNL     1      -8.402   6.019  69.094  1.00  0.00    -0.114 A  
HETATM    9  N   UNL     1      -8.190   4.917  68.356  1.00  0.00    -0.085 NA 
HETATM   10  O   UNL     1      -8.052   3.876  69.256  1.00  0.00    -0.055 OA 
HETATM   11  C   UNL     1      -8.206   4.344  70.520  1.00  0.00    -0.067 A  
HETATM   12  C   UNL     1      -8.136   3.589  71.688  1.00  0.00    -0.065 A  
HETATM   13  C   UNL     1      -8.327   4.281  72.888  1.00  0.00    -0.094 A  
HETATM   14  C   UNL     1      -8.583   5.654  72.894  1.00  0.00    -0.122 A  
HETATM   15  C   UNL     1      -8.653   6.383  71.697  1.00  0.00    -0.129 A  
HETATM   16  C   UNL     1      -8.444   5.709  70.481  1.00  0.00    -0.121 A  
ENDBRANCH   7   8
ENDBRANCH   2   7
TORSDOF 2
ENDMDL
MODEL      253
REMARK 921   NORMALIZED FREE ENERGY PREDICTED BY IDOCK:   -1.57 KCAL/MOL
REMARK 922        TOTAL FREE ENERGY PREDICTED BY IDOCK:   -2.15 KCAL/MOL
REMARK 923 INTER-LIGAND FREE ENERGY PREDICTED BY IDOCK:   -2.06 KCAL/MOL
REMARK 924 INTRA-LIGAND FREE ENERGY PREDICTED BY IDOCK:   -0.10 KCAL/MOL
REMARK 927      BINDING AFFINITY PREDICTED BY RF-SCORE:    0.00 PKD
ROOT
HETATM    1  N   UNL     1      -5.699   3.009  65.378  1.00  0.00    -0.017 N  
HETATM    2  S   UNL     1      -6.019   3.296  67.008  1.00  0.00    -0.024 S  
HETATM    3  H1  UNL     1      -6.019   3.849  64.897  1.00  0.00     0.000 HD 
HETATM    4  H2  UNL     1      -5.277   2.178  64.965  1.00  0.00     0.000 HD 
HETATM    5  O   UNL     1      -5.566   2.107  67.690  1.00  0.00    -0.017 OA 
HETATM    6  O   UNL     1      -5.429   4.593  67.247  1.00  0.00    -0.012 OA 
ENDROOT
BRANCH   2   7
HETATM    7  C   UNL     1      -7.811   3.407  67.016  1.00  0.00    -0.079 C  
BRANCH   7   8
HETATM    8  C   UNL     1      -8.351   3.907  68.305  1.00  0.00    -0.091 A  
HETATM    9  N   UNL     1      -7.900   3.372  69.452  1.00  0.00    -0.050 NA 
HETATM   10  O   UNL     1      -8.595   4.004  70.467  1.00  0.00    -0.068 OA 
HETATM   11  C   UNL     1      -9.472   4.891  69.933  1.00  0.00    -0.160 A  
HETATM   12  C   UNL     1     -10.345   5.709  70.646  1.00  0.00    -0.320 A  
HETATM   13  C   UNL     1     -11.166   6.551  69.888  1.00  0.00    -0.456 A  
HETATM   14  C   UNL     1     -11.106   6.550  68.492  1.00  0.00    -0.347 A  
HETATM   15  C   UNL     1     -10.218   5.706  67.807  1.00  0.00    -0.238 A  
HETATM   16  C   UNL     1      -9.371   4.866  68.551  1.00  0.00    -0.175 A  
ENDBRANCH   7   8
ENDBRANCH   2   7
TORSDOF 2
ENDMDL
MODEL      254
REMARK 921   NORMALIZED FREE ENERGY PREDICTED BY IDOCK:   -1.32 KCAL/MOL
REMARK 922        TOTAL FREE ENERGY PREDICTED BY IDOCK:   -1.87 KCAL/MOL
REMARK 923 INTER-LIGAND FREE ENERGY PREDICTED BY IDOCK:   -1.78 KCAL/MOL
REMARK 924 INTRA-LIGAND FREE ENERGY PREDICTED BY IDOCK:   -0.09 KCAL/MOL
REMARK 927      BINDING AFFINITY PREDICTED BY RF-SCORE:    0.00 PKD
ROOT
HETATM    1  N   UNL     1     -10.733  16.733  71.192  1.00  0.00     0.736 N  
HETATM    2  S   UNL     1     -10.651  16.604  69.514  1.00  0.00    -0.256 S  
HETATM    3  H1  UNL     1     -10.191  17.567  71.418  1.00  0.00     0.000 HD 
HETATM    4  H2  UNL     1     -11.218  16.113  71.840  1.00  0.00     0.000 HD 
HETATM    5  O   UNL     1     -11.419  15.424  69.195  1.00  0.00    -0.289 OA 
HETATM    6  O   UNL     1     -11.034  17.919  69.053  1.00  0.00     0.283 OA 
ENDROOT
BRANCH   2   7
HETATM    7  C   UNL     1      -8.896  16.330  69.251  1.00  0.00    -0.156 C  
BRANCH   7   8
HETATM    8  C   UNL     1      -8.284  17.339  68.352  1.00  0.00    -0.260 A  
HETATM    9  N   UNL     1      -8.636  17.356  67.056  1.00  0.00    -0.225 NA 
HETATM   10  O   UNL     1      -7.892  18.365  66.472  1.00  0.00    -0.236 OA 
HETATM   11  C   UNL     1      -7.083  18.931  67.403  1.00  0.00    -0.206 A  
HETATM   12  C   UNL     1      -6.189  19.976  67.185  1.00  0.00    -0.207 A  
HETATM   13  C   UNL     1      -5.452  20.405  68.293  1.00  0.00    -0.266 A  
HETATM   14  C   UNL     1      -5.610  19.797  69.541  1.00  0.00    -0.260 A  
HETATM   15  C   UNL     1      -6.516  18.741  69.723  1.00  0.00    -0.147 A  
HETATM   16  C   UNL     1      -7.281  18.309  68.625  1.00  0.00    -0.293 A  
ENDBRANCH   7   8
ENDBRANCH   2   7
TORSDOF 2
ENDMDL
MODEL      255
REMARK 921   NORMALIZED FREE ENERGY PREDICTED BY IDOCK:   -0.46 KCAL/MOL
REMARK 922        TOTAL FREE ENERGY PREDICTED BY IDOCK:   -0.92 KCAL/MOL
REMARK 923 INTER-LIGAND FREE ENERGY PREDICTED BY IDOCK:   -1.74 KCAL/MOL
REMARK 924 INTRA-LIGAND FREE ENERGY PREDICTED BY IDOCK:    0.82 KCAL/MOL
REMARK 927      BINDING AFFINITY PREDICTED BY RF-SCORE:    0.00 PKD
ROOT
HETATM    1  N   UNL     1     -11.429  13.528  68.003  1.00  0.00    -0.288 N  
HETATM    2  S   UNL     1      -9.949  12.730  67.891  1.00  0.00    -0.235 S  
HETATM    3  H1  UNL     1     -12.093  12.809  68.289  1.00  0.00     0.000 HD 
HETATM    4  H2  UNL     1     -11.618  14.514  67.825  1.00  0.00     0.000 HD 
HETATM    5  O   UNL     1      -9.008  13.748  67.487  1.00  0.00    -0.181 OA 
HETATM    6  O   UNL     1      -9.839  12.037  69.155  1.00  0.00     0.092 OA 
ENDROOT
BRANCH   2   7
HETATM    7  C   UNL     1     -10.259  11.566  66.560  1.00  0.00    -0.218 C  
BRANCH   7   8
HETATM    8  C   UNL     1      -9.120  10.644  66.324  1.00  0.00    -0.167 A  
HETATM    9  N   UNL     1      -9.284   9.606  65.487  1.00  0.00    -0.215 NA 
HETATM   10  O   UNL     1      -8.084   8.919  65.493  1.00  0.00    -0.102 OA 
HETATM   11  C   UNL     1      -7.218   9.522  66.345  1.00  0.00    -0.089 A  
HETATM   12  C   UNL     1      -5.914   9.113  66.614  1.00  0.00    -0.060 A  
HETATM   13  C   UNL     1      -5.197   9.887  67.531  1.00  0.00    -0.035 A  
HETATM   14  C   UNL     1      -5.777  11.002  68.142  1.00  0.00    -0.046 A  
HETATM   15  C   UNL     1      -7.096  11.381  67.851  1.00  0.00    -0.075 A  
HETATM   16  C   UNL     1      -7.828  10.627  66.917  1.00  0.00    -0.121 A  
ENDBRANCH   7   8
ENDBRANCH   2   7
TORSDOF 2
ENDMDL
MODEL      256
REMARK 921   NORMALIZED FREE ENERGY PREDICTED BY IDOCK:    1.99 KCAL/MOL
REMARK 922        TOTAL FREE ENERGY PREDICTED BY IDOCK:    1.83 KCAL/MOL
REMARK 923 INTER-LIGAND FREE ENERGY PREDICTED BY IDOCK:    1.91 KCAL/MOL
REMARK 924 INTRA-LIGAND FREE ENERGY PREDICTED BY IDOCK:   -0.08 KCAL/MOL
REMARK 927      BINDING AFFINITY PREDICTED BY RF-SCORE:    0.00 PKD
ROOT
HETATM    1  N   UNL     1     -11.344  14.634  64.464  1.00  0.00    -0.595 N  
HETATM    2  S   UNL     1     -11.968  14.451  66.018  1.00  0.00    -0.333 S  
HETATM    3  H1  UNL     1     -10.359  14.381  64.545  1.00  0.00     0.000 HD 
HETATM    4  H2  UNL     1     -11.842  14.932  63.625  1.00  0.00     0.000 HD 
HETATM    5  O   UNL     1     -13.362  14.809  65.902  1.00  0.00     0.422 OA 
HETATM    6  O   UNL     1     -11.543  13.124  66.401  1.00  0.00    -0.317 OA 
ENDROOT
BRANCH   2   7
HETATM    7  C   UNL     1     -11.052  15.696  66.931  1.00  0.00    -0.181 C  
BRANCH   7   8
HETATM    8  C   UNL     1     -10.744  15.279  68.322  1.00  0.00    -0.254 A  
HETATM    9  N   UNL     1      -9.481  15.382  68.769  1.00  0.00    -0.200 NA 
HETATM   10  O   UNL     1      -9.494  14.897  70.064  1.00  0.00     0.120 OA 
HETATM   11  C   UNL     1     -10.746  14.483  70.382  1.00  0.00     0.293 A  
HETATM   12  C   UNL     1     -11.143  13.934  71.599  1.00  0.00     2.509 A  
HETATM   13  C   UNL     1     -12.491  13.576  71.709  1.00  0.00    -0.163 A  
HETATM   14  C   UNL     1     -13.373  13.756  70.641  1.00  0.00     0.127 A  
HETATM   15  C   UNL     1     -12.936  14.306  69.426  1.00  0.00     0.811 A  
HETATM   16  C   UNL     1     -11.590  14.691  69.302  1.00  0.00    -0.335 A  
ENDBRANCH   7   8
ENDBRANCH   2   7
TORSDOF 2
ENDMDL
MODEL      257
REMARK 921   NORMALIZED FREE ENERGY PREDICTED BY IDOCK:    3.96 KCAL/MOL
REMARK 922        TOTAL FREE ENERGY PREDICTED BY IDOCK:    4.02 KCAL/MOL
REMARK 923 INTER-LIGAND FREE ENERGY PREDICTED BY IDOCK:    4.11 KCAL/MOL
REMARK 924 INTRA-LIGAND FREE ENERGY PREDICTED BY IDOCK:   -0.09 KCAL/MOL
REMARK 927      BINDING AFFINITY PREDICTED BY RF-SCORE:    0.00 PKD
ROOT
HETATM    1  N   UNL     1     -11.338  14.629  64.471  1.00  0.00    -0.595 N  
HETATM    2  S   UNL     1     -11.893  14.387  66.044  1.00  0.00    -0.348 S  
HETATM    3  H1  UNL     1     -10.351  14.375  64.499  1.00  0.00     0.000 HD 
HETATM    4  H2  UNL     1     -11.873  14.958  63.667  1.00  0.00     0.000 HD 
HETATM    5  O   UNL     1     -13.290  14.747  66.004  1.00  0.00     0.629 OA 
HETATM    6  O   UNL     1     -11.451  13.047  66.357  1.00  0.00    -0.310 OA 
ENDROOT
BRANCH   2   7
HETATM    7  C   UNL     1     -10.935  15.597  66.962  1.00  0.00    -0.261 C  
BRANCH   7   8
HETATM    8  C   UNL     1     -10.523  15.108  68.301  1.00  0.00    -0.241 A  
HETATM    9  N   UNL     1     -11.452  14.586  69.119  1.00  0.00    -0.276 NA 
HETATM   10  O   UNL     1     -10.788  14.253  70.286  1.00  0.00     0.078 OA 
HETATM   11  C   UNL     1      -9.480  14.594  70.179  1.00  0.00     0.865 A  
HETATM   12  C   UNL     1      -8.503  14.414  71.155  1.00  0.00     4.205 A  
HETATM   13  C   UNL     1      -7.212  14.842  70.829  1.00  0.00     0.911 A  
HETATM   14  C   UNL     1      -6.939  15.427  69.590  1.00  0.00    -0.184 A  
HETATM   15  C   UNL     1      -7.950  15.599  68.633  1.00  0.00    -0.152 A  
HETATM   16  C   UNL     1      -9.250  15.158  68.934  1.00  0.00    -0.209 A  
ENDBRANCH   7   8
ENDBRANCH   2   7
TORSDOF 2
ENDMDL
MODEL      258
REMARK 921   NORMALIZED FREE ENERGY PREDICTED BY IDOCK:    5.09 KCAL/MOL
REMARK 922        TOTAL FREE ENERGY PREDICTED BY IDOCK:    5.29 KCAL/MOL
REMARK 923 INTER-LIGAND FREE ENERGY PREDICTED BY IDOCK:    5.50 KCAL/MOL
REMARK 924 INTRA-LIGAND FREE ENERGY PREDICTED BY IDOCK:   -0.21 KCAL/MOL
REMARK 927      BINDING AFFINITY PREDICTED BY RF-SCORE:    0.00 PKD
ROOT
HETATM    1  N   UNL     1      -8.333  19.178  69.721  1.00  0.00     0.519 N  
HETATM    2  S   UNL     1      -9.885  18.524  69.653  1.00  0.00     0.645 S  
HETATM    3  H1  UNL     1      -8.351  19.964  69.072  1.00  0.00     0.000 HD 
HETATM    4  H2  UNL     1      -7.548  18.857  70.287  1.00  0.00     0.000 HD 
HETATM    5  O   UNL     1      -9.859  17.411  70.572  1.00  0.00     1.701 OA 
HETATM    6  O   UNL     1     -10.744  19.669  69.853  1.00  0.00     0.666 OA 
ENDROOT
BRANCH   2   7
HETATM    7  C   UNL     1      -9.972  17.960  67.951  1.00  0.00    -0.329 C  
BRANCH   7   8
HETATM    8  C   UNL     1     -10.965  16.875  67.754  1.00  0.00    -0.212 A  
HETATM    9  N   UNL     1     -12.266  17.135  67.965  1.00  0.00     1.614 NA 
HETATM   10  O   UNL     1     -12.935  15.947  67.740  1.00  0.00     2.150 OA 
HETATM   11  C   UNL     1     -12.042  14.975  67.422  1.00  0.00     0.104 A  
HETATM   12  C   UNL     1     -12.345  13.648  67.131  1.00  0.00    -0.234 A  
HETATM   13  C   UNL     1     -11.262  12.815  66.829  1.00  0.00    -0.338 A  
HETATM   14  C   UNL     1      -9.954  13.306  66.835  1.00  0.00    -0.250 A  
HETATM   15  C   UNL     1      -9.685  14.649  67.140  1.00  0.00    -0.235 A  
HETATM   16  C   UNL     1     -10.762  15.506  67.426  1.00  0.00    -0.301 A  
ENDBRANCH   7   8
ENDBRANCH   2   7
TORSDOF 2
ENDMDL
