MODEL        1
REMARK 921   NORMALIZED FREE ENERGY PREDICTED BY IDOCK:   -7.31 KCAL/MOL
REMARK 922        TOTAL FREE ENERGY PREDICTED BY IDOCK:   -9.40 KCAL/MOL
REMARK 923 INTER-LIGAND FREE ENERGY PREDICTED BY IDOCK:   -8.59 KCAL/MOL
REMARK 924 INTRA-LIGAND FREE ENERGY PREDICTED BY IDOCK:   -0.81 KCAL/MOL
REMARK 927      BINDING AFFINITY PREDICTED BY RF-SCORE:    0.00 PKD
ROOT
HETATM    1  C   UNL     1      -8.705   6.952  66.851  1.00  0.00    -0.118 C  
HETATM    2  N   UNL     1     -10.026   7.575  66.781  1.00  0.00    -0.235 NA 
HETATM    3  C   UNL     1     -10.746   7.477  68.071  1.00  0.00    -0.106 C  
HETATM    4  C   UNL     1     -10.215   8.415  69.171  1.00  0.00    -0.211 C  
HETATM    5  N   UNL     1     -10.140   9.791  68.694  1.00  0.00    -0.163 N  
HETATM    6  C   UNL     1      -9.406   9.963  67.438  1.00  0.00    -0.137 C  
HETATM    7  C   UNL     1     -10.977  10.748  69.233  1.00  0.00    -0.241 C  
HETATM    8  O   UNL     1     -11.823  10.506  70.082  1.00  0.00    -0.274 OA 
HETATM    9  C   UNL     1      -9.943   8.994  66.360  1.00  0.00    -0.300 C  
ENDROOT
BRANCH   7  10
HETATM   10  O   UNL     1     -10.733  11.984  68.737  1.00  0.00    -0.222 OA 
BRANCH  10  11
HETATM   11  C   UNL     1     -11.888  12.741  68.378  1.00  0.00    -0.310 C  
HETATM   12  N   UNL     1     -11.721  14.100  68.867  1.00  0.00    -0.313 N  
HETATM   13  C   UNL     1     -11.583  15.026  67.841  1.00  0.00    -0.333 C  
HETATM   14  C   UNL     1     -11.834  12.930  66.880  1.00  0.00    -0.379 A  
HETATM   15  N   UNL     1     -11.912  11.974  65.926  1.00  0.00    -0.519 NA 
HETATM   16  C   UNL     1     -11.638  14.264  66.586  1.00  0.00    -0.383 A  
HETATM   17  O   UNL     1     -11.501  16.239  67.913  1.00  0.00    -0.218 OA 
HETATM   18  C   UNL     1     -11.788  12.455  64.662  1.00  0.00    -0.380 A  
HETATM   19  N   UNL     1     -11.523  14.764  65.341  1.00  0.00    -0.347 NA 
HETATM   20  C   UNL     1     -11.602  13.812  64.379  1.00  0.00    -0.395 A  
BRANCH  12  21
HETATM   21  C   UNL     1     -11.977  14.415  70.205  1.00  0.00    -0.321 A  
HETATM   22 CL   UNL     1     -12.444  15.395  74.539  1.00  0.00    -0.727 Cl 
HETATM   23  C   UNL     1     -13.062  13.993  72.311  1.00  0.00    -0.516 A  
HETATM   24  C   UNL     1     -11.444  15.712  72.049  1.00  0.00    -0.404 A  
HETATM   25  N   UNL     1     -11.289  15.453  70.728  1.00  0.00    -0.317 NA 
HETATM   26  C   UNL     1     -12.879  13.675  70.964  1.00  0.00    -0.360 A  
HETATM   27  C   UNL     1     -12.310  15.015  72.872  1.00  0.00    -0.363 A  
ENDBRANCH  12  21
ENDBRANCH  10  11
ENDBRANCH   7  10
TORSDOF 3
ENDMDL
MODEL        2
REMARK 921   NORMALIZED FREE ENERGY PREDICTED BY IDOCK:   -7.27 KCAL/MOL
REMARK 922        TOTAL FREE ENERGY PREDICTED BY IDOCK:   -9.36 KCAL/MOL
REMARK 923 INTER-LIGAND FREE ENERGY PREDICTED BY IDOCK:   -8.59 KCAL/MOL
REMARK 924 INTRA-LIGAND FREE ENERGY PREDICTED BY IDOCK:   -0.77 KCAL/MOL
REMARK 927      BINDING AFFINITY PREDICTED BY RF-SCORE:    0.00 PKD
ROOT
HETATM    1  C   UNL     1      -5.144  17.289  67.454  1.00  0.00    -0.123 C  
HETATM    2  N   UNL     1      -6.099  17.865  68.400  1.00  0.00    -0.176 NA 
HETATM    3  C   UNL     1      -7.219  18.538  67.703  1.00  0.00    -0.215 C  
HETATM    4  C   UNL     1      -8.235  17.579  67.055  1.00  0.00    -0.218 C  
HETATM    5  N   UNL     1      -8.709  16.590  68.018  1.00  0.00    -0.186 N  
HETATM    6  C   UNL     1      -7.648  15.860  68.716  1.00  0.00    -0.178 C  
HETATM    7  C   UNL     1     -10.026  16.616  68.432  1.00  0.00    -0.255 C  
HETATM    8  O   UNL     1     -10.836  17.454  68.062  1.00  0.00    -0.384 OA 
HETATM    9  C   UNL     1      -6.631  16.846  69.335  1.00  0.00    -0.228 C  
ENDROOT
BRANCH   7  10
HETATM   10  O   UNL     1     -10.324  15.592  69.266  1.00  0.00    -0.220 OA 
BRANCH  10  11
HETATM   11  C   UNL     1     -11.702  15.225  69.320  1.00  0.00    -0.338 C  
HETATM   12  N   UNL     1     -11.817  13.811  69.000  1.00  0.00    -0.338 N  
HETATM   13  C   UNL     1     -12.232  13.048  70.083  1.00  0.00    -0.272 C  
HETATM   14  C   UNL     1     -12.102  15.258  70.777  1.00  0.00    -0.351 A  
HETATM   15  N   UNL     1     -12.147  16.335  71.595  1.00  0.00    -0.398 NA 
HETATM   16  C   UNL     1     -12.390  13.979  71.209  1.00  0.00    -0.355 A  
HETATM   17  O   UNL     1     -12.492  11.860  70.125  1.00  0.00    -0.185 OA 
HETATM   18  C   UNL     1     -12.507  16.035  72.870  1.00  0.00    -0.497 A  
HETATM   19  N   UNL     1     -12.760  13.661  72.464  1.00  0.00    -0.153 NA 
HETATM   20  C   UNL     1     -12.807  14.735  73.290  1.00  0.00    -0.507 A  
BRANCH  12  21
HETATM   21  C   UNL     1     -11.791  13.375  67.671  1.00  0.00    -0.354 A  
HETATM   22 CL   UNL     1     -12.060  12.024  63.422  1.00  0.00    -0.610 Cl 
HETATM   23  C   UNL     1     -11.272  11.732  65.991  1.00  0.00    -0.352 A  
HETATM   24  C   UNL     1     -12.438  13.737  65.477  1.00  0.00    -0.512 A  
HETATM   25  N   UNL     1     -12.360  14.185  66.754  1.00  0.00    -0.394 NA 
HETATM   26  C   UNL     1     -11.227  12.151  67.323  1.00  0.00    -0.366 A  
HETATM   27  C   UNL     1     -11.914  12.529  65.054  1.00  0.00    -0.427 A  
ENDBRANCH  12  21
ENDBRANCH  10  11
ENDBRANCH   7  10
TORSDOF 3
ENDMDL
MODEL        3
REMARK 921   NORMALIZED FREE ENERGY PREDICTED BY IDOCK:   -7.21 KCAL/MOL
REMARK 922        TOTAL FREE ENERGY PREDICTED BY IDOCK:   -9.28 KCAL/MOL
REMARK 923 INTER-LIGAND FREE ENERGY PREDICTED BY IDOCK:   -8.26 KCAL/MOL
REMARK 924 INTRA-LIGAND FREE ENERGY PREDICTED BY IDOCK:   -1.02 KCAL/MOL
REMARK 927      BINDING AFFINITY PREDICTED BY RF-SCORE:    0.00 PKD
ROOT
HETATM    1  C   UNL     1      -7.404  20.007  68.200  1.00  0.00    -0.280 C  
HETATM    2  N   UNL     1      -8.712  19.543  67.737  1.00  0.00    -0.312 NA 
HETATM    3  C   UNL     1      -8.628  18.924  66.395  1.00  0.00    -0.294 C  
HETATM    4  C   UNL     1      -7.977  17.529  66.374  1.00  0.00    -0.285 C  
HETATM    5  N   UNL     1      -8.611  16.642  67.343  1.00  0.00    -0.187 N  
HETATM    6  C   UNL     1      -8.691  17.179  68.704  1.00  0.00    -0.266 C  
HETATM    7  C   UNL     1      -9.342  15.557  66.901  1.00  0.00    -0.233 C  
HETATM    8  O   UNL     1      -9.528  15.302  65.719  1.00  0.00    -0.333 OA 
HETATM    9  C   UNL     1      -9.326  18.588  68.691  1.00  0.00    -0.326 C  
ENDROOT
BRANCH   7  10
HETATM   10  O   UNL     1      -9.802  14.794  67.921  1.00  0.00    -0.209 OA 
BRANCH  10  11
HETATM   11  C   UNL     1     -11.171  14.403  67.828  1.00  0.00    -0.300 C  
HETATM   12  N   UNL     1     -11.231  12.958  67.685  1.00  0.00    -0.263 N  
HETATM   13  C   UNL     1     -11.792  12.333  68.790  1.00  0.00    -0.306 C  
HETATM   14  C   UNL     1     -11.777  14.616  69.195  1.00  0.00    -0.309 A  
HETATM   15  N   UNL     1     -11.945  15.790  69.849  1.00  0.00    -0.353 NA 
HETATM   16  C   UNL     1     -12.117  13.399  69.748  1.00  0.00    -0.310 A  
HETATM   17  O   UNL     1     -12.049  11.154  68.952  1.00  0.00    -0.475 OA 
HETATM   18  C   UNL     1     -12.483  15.650  71.088  1.00  0.00    -0.448 A  
HETATM   19  N   UNL     1     -12.661  13.238  70.970  1.00  0.00    -0.354 NA 
HETATM   20  C   UNL     1     -12.833  14.410  71.630  1.00  0.00    -0.343 A  
BRANCH  12  21
HETATM   21  C   UNL     1     -11.012  12.352  66.443  1.00  0.00    -0.276 A  
HETATM   22 CL   UNL     1      -9.974  10.525  62.501  1.00  0.00    -0.058 Cl 
HETATM   23  C   UNL     1     -11.492  12.089  64.100  1.00  0.00    -0.460 A  
HETATM   24  C   UNL     1      -9.707  10.934  65.158  1.00  0.00    -0.262 A  
HETATM   25  N   UNL     1     -10.004  11.457  66.373  1.00  0.00    -0.208 NA 
HETATM   26  C   UNL     1     -11.783  12.680  65.332  1.00  0.00    -0.428 A  
HETATM   27  C   UNL     1     -10.416  11.218  64.005  1.00  0.00    -0.378 A  
ENDBRANCH  12  21
ENDBRANCH  10  11
ENDBRANCH   7  10
TORSDOF 3
ENDMDL
MODEL        4
REMARK 921   NORMALIZED FREE ENERGY PREDICTED BY IDOCK:   -7.03 KCAL/MOL
REMARK 922        TOTAL FREE ENERGY PREDICTED BY IDOCK:   -9.07 KCAL/MOL
REMARK 923 INTER-LIGAND FREE ENERGY PREDICTED BY IDOCK:   -8.61 KCAL/MOL
REMARK 924 INTRA-LIGAND FREE ENERGY PREDICTED BY IDOCK:   -0.46 KCAL/MOL
REMARK 927      BINDING AFFINITY PREDICTED BY RF-SCORE:    0.00 PKD
ROOT
HETATM    1  C   UNL     1     -14.410  14.406  71.751  1.00  0.00    -0.501 C  
HETATM    2  N   UNL     1     -12.979  14.208  71.977  1.00  0.00    -0.344 NA 
HETATM    3  C   UNL     1     -12.440  13.114  71.137  1.00  0.00    -0.287 C  
HETATM    4  C   UNL     1     -12.292  13.468  69.646  1.00  0.00    -0.165 C  
HETATM    5  N   UNL     1     -11.539  14.706  69.474  1.00  0.00    -0.292 N  
HETATM    6  C   UNL     1     -12.045  15.841  70.250  1.00  0.00    -0.347 C  
HETATM    7  C   UNL     1     -10.289  14.670  68.889  1.00  0.00    -0.245 C  
HETATM    8  O   UNL     1      -9.741  13.640  68.525  1.00  0.00    -0.227 OA 
HETATM    9  C   UNL     1     -12.206  15.450  71.737  1.00  0.00    -0.379 C  
ENDROOT
BRANCH   7  10
HETATM   10  O   UNL     1      -9.756  15.906  68.736  1.00  0.00    -0.198 OA 
BRANCH  10  11
HETATM   11  C   UNL     1      -9.144  16.159  67.472  1.00  0.00    -0.203 C  
HETATM   12  N   UNL     1     -10.189  16.327  66.477  1.00  0.00    -0.290 N  
HETATM   13  C   UNL     1     -10.256  17.624  65.983  1.00  0.00    -0.297 C  
HETATM   14  C   UNL     1      -8.547  17.545  67.549  1.00  0.00    -0.221 A  
HETATM   15  N   UNL     1      -7.541  17.966  68.351  1.00  0.00    -0.272 NA 
HETATM   16  C   UNL     1      -9.219  18.389  66.688  1.00  0.00    -0.304 A  
HETATM   17  O   UNL     1     -10.964  18.068  65.098  1.00  0.00    -0.645 OA 
HETATM   18  C   UNL     1      -7.256  19.287  68.218  1.00  0.00    -0.281 A  
HETATM   19  N   UNL     1      -8.946  19.699  66.533  1.00  0.00    -0.352 NA 
HETATM   20  C   UNL     1      -7.938  20.127  67.333  1.00  0.00    -0.322 A  
BRANCH  12  21
HETATM   21  C   UNL     1     -10.820  15.217  65.907  1.00  0.00    -0.339 A  
HETATM   22 CL   UNL     1     -12.723  11.785  63.772  1.00  0.00    -0.481 Cl 
HETATM   23  C   UNL     1     -12.770  13.868  65.494  1.00  0.00    -0.536 A  
HETATM   24  C   UNL     1     -10.677  13.403  64.474  1.00  0.00    -0.419 A  
HETATM   25  N   UNL     1     -10.063  14.425  65.118  1.00  0.00    -0.372 NA 
HETATM   26  C   UNL     1     -12.170  14.959  66.127  1.00  0.00     0.098 A  
HETATM   27  C   UNL     1     -12.015  13.090  64.629  1.00  0.00    -0.392 A  
ENDBRANCH  12  21
ENDBRANCH  10  11
ENDBRANCH   7  10
TORSDOF 3
ENDMDL
MODEL        5
REMARK 921   NORMALIZED FREE ENERGY PREDICTED BY IDOCK:   -7.01 KCAL/MOL
REMARK 922        TOTAL FREE ENERGY PREDICTED BY IDOCK:   -9.05 KCAL/MOL
REMARK 923 INTER-LIGAND FREE ENERGY PREDICTED BY IDOCK:   -7.99 KCAL/MOL
REMARK 924 INTRA-LIGAND FREE ENERGY PREDICTED BY IDOCK:   -1.06 KCAL/MOL
REMARK 927      BINDING AFFINITY PREDICTED BY RF-SCORE:    0.00 PKD
ROOT
HETATM    1  C   UNL     1      -5.808  17.430  66.392  1.00  0.00    -0.209 C  
HETATM    2  N   UNL     1      -6.494  17.780  67.635  1.00  0.00    -0.175 NA 
HETATM    3  C   UNL     1      -7.712  18.582  67.379  1.00  0.00    -0.227 C  
HETATM    4  C   UNL     1      -8.893  17.782  66.797  1.00  0.00    -0.260 C  
HETATM    5  N   UNL     1      -9.177  16.604  67.609  1.00  0.00    -0.208 N  
HETATM    6  C   UNL     1      -8.019  15.745  67.868  1.00  0.00    -0.138 C  
HETATM    7  C   UNL     1     -10.362  16.531  68.315  1.00  0.00    -0.293 C  
HETATM    8  O   UNL     1     -11.197  17.425  68.332  1.00  0.00    -0.124 OA 
HETATM    9  C   UNL     1      -6.844  16.577  68.429  1.00  0.00    -0.145 C  
ENDROOT
BRANCH   7  10
HETATM   10  O   UNL     1     -10.508  15.347  68.957  1.00  0.00    -0.229 OA 
BRANCH  10  11
HETATM   11  C   UNL     1     -11.773  14.709  68.789  1.00  0.00    -0.324 C  
HETATM   12  N   UNL     1     -11.548  13.297  68.525  1.00  0.00    -0.310 N  
HETATM   13  C   UNL     1     -11.992  12.481  69.557  1.00  0.00    -0.266 C  
HETATM   14  C   UNL     1     -12.427  14.681  70.151  1.00  0.00    -0.317 A  
HETATM   15  N   UNL     1     -12.829  15.737  70.894  1.00  0.00    -0.456 NA 
HETATM   16  C   UNL     1     -12.531  13.376  70.590  1.00  0.00    -0.311 A  
HETATM   17  O   UNL     1     -12.016  11.265  69.612  1.00  0.00    -0.306 OA 
HETATM   18  C   UNL     1     -13.347  15.389  72.101  1.00  0.00    -0.444 A  
HETATM   19  N   UNL     1     -13.050  13.007  71.777  1.00  0.00    -0.400 NA 
HETATM   20  C   UNL     1     -13.456  14.061  72.527  1.00  0.00    -0.558 A  
BRANCH  12  21
HETATM   21  C   UNL     1     -11.198  12.857  67.245  1.00  0.00    -0.288 A  
HETATM   22 CL   UNL     1      -9.809  11.677  63.166  1.00  0.00    -0.424 Cl 
HETATM   23  C   UNL     1     -11.699  12.488  64.920  1.00  0.00    -0.409 A  
HETATM   24  C   UNL     1      -9.539  12.089  65.822  1.00  0.00    -0.213 A  
HETATM   25  N   UNL     1      -9.930  12.424  67.076  1.00  0.00    -0.210 NA 
HETATM   26  C   UNL     1     -12.110  12.888  66.194  1.00  0.00    -0.458 A  
HETATM   27  C   UNL     1     -10.380  12.106  64.725  1.00  0.00    -0.288 A  
ENDBRANCH  12  21
ENDBRANCH  10  11
ENDBRANCH   7  10
TORSDOF 3
ENDMDL
MODEL        6
REMARK 921   NORMALIZED FREE ENERGY PREDICTED BY IDOCK:   -6.93 KCAL/MOL
REMARK 922        TOTAL FREE ENERGY PREDICTED BY IDOCK:   -8.95 KCAL/MOL
REMARK 923 INTER-LIGAND FREE ENERGY PREDICTED BY IDOCK:   -7.92 KCAL/MOL
REMARK 924 INTRA-LIGAND FREE ENERGY PREDICTED BY IDOCK:   -1.03 KCAL/MOL
REMARK 927      BINDING AFFINITY PREDICTED BY RF-SCORE:    0.00 PKD
ROOT
HETATM    1  C   UNL     1      -7.892   8.213  67.832  1.00  0.00    -0.122 C  
HETATM    2  N   UNL     1      -9.017   9.073  68.196  1.00  0.00    -0.133 NA 
HETATM    3  C   UNL     1      -8.628  10.082  69.207  1.00  0.00    -0.168 C  
HETATM    4  C   UNL     1      -7.755  11.228  68.662  1.00  0.00    -0.136 C  
HETATM    5  N   UNL     1      -8.371  11.841  67.490  1.00  0.00    -0.147 N  
HETATM    6  C   UNL     1      -8.746  10.899  66.433  1.00  0.00    -0.170 C  
HETATM    7  C   UNL     1      -8.833  13.141  67.562  1.00  0.00    -0.199 C  
HETATM    8  O   UNL     1      -8.791  13.819  68.579  1.00  0.00    -0.174 OA 
HETATM    9  C   UNL     1      -9.600   9.749  67.012  1.00  0.00    -0.172 C  
ENDROOT
BRANCH   7  10
HETATM   10  O   UNL     1      -9.307  13.586  66.374  1.00  0.00    -0.248 OA 
BRANCH  10  11
HETATM   11  C   UNL     1     -10.606  14.175  66.412  1.00  0.00    -0.280 C  
HETATM   12  N   UNL     1     -10.532  15.498  65.816  1.00  0.00    -0.337 N  
HETATM   13  C   UNL     1     -11.228  15.586  64.617  1.00  0.00    -0.371 C  
HETATM   14  C   UNL     1     -11.454  13.420  65.415  1.00  0.00    -0.302 A  
HETATM   15  N   UNL     1     -11.820  12.118  65.462  1.00  0.00    -0.440 NA 
HETATM   16  C   UNL     1     -11.792  14.253  64.368  1.00  0.00    -0.426 A  
HETATM   17  O   UNL     1     -11.420  16.563  63.916  1.00  0.00    -1.145 OA 
HETATM   18  C   UNL     1     -12.552  11.719  64.390  1.00  0.00     0.107 A  
HETATM   19  N   UNL     1     -12.526  13.882  63.301  1.00  0.00    -0.731 NA 
HETATM   20  C   UNL     1     -12.897  12.578  63.342  1.00  0.00    -0.048 A  
BRANCH  12  21
HETATM   21  C   UNL     1     -10.056  16.588  66.552  1.00  0.00    -0.299 A  
HETATM   22 CL   UNL     1      -8.214  19.925  68.882  1.00  0.00    -0.158 Cl 
HETATM   23  C   UNL     1     -10.063  17.988  68.509  1.00  0.00    -0.399 A  
HETATM   24  C   UNL     1      -8.483  18.276  66.759  1.00  0.00    -0.260 A  
HETATM   25  N   UNL     1      -9.027  17.280  66.018  1.00  0.00    -0.520 NA 
HETATM   26  C   UNL     1     -10.606  16.924  67.786  1.00  0.00    -0.340 A  
HETATM   27  C   UNL     1      -8.962  18.661  67.998  1.00  0.00    -0.302 A  
ENDBRANCH  12  21
ENDBRANCH  10  11
ENDBRANCH   7  10
TORSDOF 3
ENDMDL
MODEL        7
REMARK 921   NORMALIZED FREE ENERGY PREDICTED BY IDOCK:   -6.85 KCAL/MOL
REMARK 922        TOTAL FREE ENERGY PREDICTED BY IDOCK:   -8.86 KCAL/MOL
REMARK 923 INTER-LIGAND FREE ENERGY PREDICTED BY IDOCK:   -8.33 KCAL/MOL
REMARK 924 INTRA-LIGAND FREE ENERGY PREDICTED BY IDOCK:   -0.52 KCAL/MOL
REMARK 927      BINDING AFFINITY PREDICTED BY RF-SCORE:    0.00 PKD
ROOT
HETATM    1  C   UNL     1     -12.653  14.728  73.764  1.00  0.00    -0.327 C  
HETATM    2  N   UNL     1     -13.526  14.705  72.591  1.00  0.00    -0.458 NA 
HETATM    3  C   UNL     1     -13.116  15.714  71.587  1.00  0.00    -0.475 C  
HETATM    4  C   UNL     1     -11.836  15.357  70.808  1.00  0.00    -0.353 C  
HETATM    5  N   UNL     1     -11.931  14.021  70.230  1.00  0.00    -0.325 N  
HETATM    6  C   UNL     1     -12.296  12.967  71.180  1.00  0.00    -0.175 C  
HETATM    7  C   UNL     1     -11.990  13.873  68.858  1.00  0.00    -0.358 C  
HETATM    8  O   UNL     1     -12.001  14.812  68.075  1.00  0.00    -0.316 OA 
HETATM    9  C   UNL     1     -13.569  13.363  71.963  1.00  0.00    -0.487 C  
ENDROOT
BRANCH   7  10
HETATM   10  O   UNL     1     -12.001  12.572  68.480  1.00  0.00    -0.313 OA 
BRANCH  10  11
HETATM   11  C   UNL     1     -10.733  12.027  68.118  1.00  0.00    -0.216 C  
HETATM   12  N   UNL     1     -10.792  10.582  68.263  1.00  0.00    -0.228 N  
HETATM   13  C   UNL     1     -10.708   9.917  67.047  1.00  0.00    -0.167 C  
HETATM   14  C   UNL     1     -10.600  12.195  66.622  1.00  0.00    -0.235 A  
HETATM   15  N   UNL     1     -10.529  13.353  65.926  1.00  0.00    -0.282 NA 
HETATM   16  C   UNL     1     -10.605  10.956  66.013  1.00  0.00    -0.189 A  
HETATM   17  O   UNL     1     -10.655   8.720  66.833  1.00  0.00    -0.276 OA 
HETATM   18  C   UNL     1     -10.457  13.176  64.581  1.00  0.00    -0.392 A  
HETATM   19  N   UNL     1     -10.523  10.757  64.684  1.00  0.00    -0.329 NA 
HETATM   20  C   UNL     1     -10.451  11.913  63.979  1.00  0.00    -0.373 A  
BRANCH  12  21
HETATM   21  C   UNL     1     -10.650   9.983  69.519  1.00  0.00    -0.244 A  
HETATM   22 CL   UNL     1      -9.997   7.820  73.372  1.00  0.00    -0.378 Cl 
HETATM   23  C   UNL     1     -11.569   8.980  71.504  1.00  0.00    -0.413 A  
HETATM   24  C   UNL     1      -9.229   9.077  71.108  1.00  0.00    -0.256 A  
HETATM   25  N   UNL     1      -9.390   9.749  69.941  1.00  0.00    -0.223 NA 
HETATM   26  C   UNL     1     -11.760   9.625  70.279  1.00  0.00    -0.213 A  
HETATM   27  C   UNL     1     -10.279   8.676  71.914  1.00  0.00    -0.334 A  
ENDBRANCH  12  21
ENDBRANCH  10  11
ENDBRANCH   7  10
TORSDOF 3
ENDMDL
MODEL        8
REMARK 921   NORMALIZED FREE ENERGY PREDICTED BY IDOCK:   -6.83 KCAL/MOL
REMARK 922        TOTAL FREE ENERGY PREDICTED BY IDOCK:   -8.84 KCAL/MOL
REMARK 923 INTER-LIGAND FREE ENERGY PREDICTED BY IDOCK:   -7.80 KCAL/MOL
REMARK 924 INTRA-LIGAND FREE ENERGY PREDICTED BY IDOCK:   -1.03 KCAL/MOL
REMARK 927      BINDING AFFINITY PREDICTED BY RF-SCORE:    0.00 PKD
ROOT
HETATM    1  C   UNL     1      -5.699   9.804  68.463  1.00  0.00    -0.039 C  
HETATM    2  N   UNL     1      -6.898  10.493  68.938  1.00  0.00    -0.059 NA 
HETATM    3  C   UNL     1      -6.560  11.724  69.687  1.00  0.00    -0.081 C  
HETATM    4  C   UNL     1      -6.074  12.893  68.810  1.00  0.00    -0.075 C  
HETATM    5  N   UNL     1      -7.013  13.157  67.725  1.00  0.00    -0.129 N  
HETATM    6  C   UNL     1      -7.361  11.985  66.918  1.00  0.00    -0.042 C  
HETATM    7  C   UNL     1      -7.727  14.339  67.712  1.00  0.00    -0.163 C  
HETATM    8  O   UNL     1      -7.649  15.187  68.589  1.00  0.00    -0.115 OA 
HETATM    9  C   UNL     1      -7.821  10.821  67.825  1.00  0.00    -0.109 C  
ENDROOT
BRANCH   7  10
HETATM   10  O   UNL     1      -8.497  14.464  66.604  1.00  0.00    -0.121 OA 
BRANCH  10  11
HETATM   11  C   UNL     1      -9.781  15.050  66.812  1.00  0.00    -0.241 C  
HETATM   12  N   UNL     1      -9.923  16.184  65.914  1.00  0.00    -0.338 N  
HETATM   13  C   UNL     1     -10.885  15.976  64.934  1.00  0.00    -0.372 C  
HETATM   14  C   UNL     1     -10.796  14.076  66.261  1.00  0.00    -0.291 A  
HETATM   15  N   UNL     1     -11.068  12.828  66.709  1.00  0.00    -0.267 NA 
HETATM   16  C   UNL     1     -11.417  14.625  65.158  1.00  0.00    -0.375 A  
HETATM   17  O   UNL     1     -11.290  16.749  64.085  1.00  0.00    -1.194 OA 
HETATM   18  C   UNL     1     -12.008  12.179  65.975  1.00  0.00    -0.160 A  
HETATM   19  N   UNL     1     -12.359  14.004  64.422  1.00  0.00    -0.627 NA 
HETATM   20  C   UNL     1     -12.637  12.753  64.865  1.00  0.00    -0.470 A  
BRANCH  12  21
HETATM   21  C   UNL     1      -9.349  17.421  66.227  1.00  0.00    -0.217 A  
HETATM   22 CL   UNL     1      -7.255  21.192  67.389  1.00  0.00    -0.373 Cl 
HETATM   23  C   UNL     1      -9.434  19.597  67.249  1.00  0.00    -0.446 A  
HETATM   24  C   UNL     1      -7.456  18.756  66.239  1.00  0.00    -0.262 A  
HETATM   25  N   UNL     1      -8.064  17.606  65.856  1.00  0.00    -0.554 NA 
HETATM   26  C   UNL     1     -10.066  18.399  66.911  1.00  0.00    -0.385 A  
HETATM   27  C   UNL     1      -8.095  19.769  66.930  1.00  0.00    -0.297 A  
ENDBRANCH  12  21
ENDBRANCH  10  11
ENDBRANCH   7  10
TORSDOF 3
ENDMDL
MODEL        9
REMARK 921   NORMALIZED FREE ENERGY PREDICTED BY IDOCK:   -6.79 KCAL/MOL
REMARK 922        TOTAL FREE ENERGY PREDICTED BY IDOCK:   -8.79 KCAL/MOL
REMARK 923 INTER-LIGAND FREE ENERGY PREDICTED BY IDOCK:   -7.75 KCAL/MOL
REMARK 924 INTRA-LIGAND FREE ENERGY PREDICTED BY IDOCK:   -1.04 KCAL/MOL
REMARK 927      BINDING AFFINITY PREDICTED BY RF-SCORE:    0.00 PKD
ROOT
HETATM    1  C   UNL     1     -11.998  11.512  64.435  1.00  0.00     0.078 C  
HETATM    2  N   UNL     1     -11.353  12.530  63.608  1.00  0.00    -0.453 NA 
HETATM    3  C   UNL     1     -12.231  13.704  63.403  1.00  0.00    -0.174 C  
HETATM    4  C   UNL     1     -12.381  14.612  64.638  1.00  0.00    -0.375 C  
HETATM    5  N   UNL     1     -11.077  14.994  65.168  1.00  0.00    -0.380 N  
HETATM    6  C   UNL     1     -10.171  13.873  65.430  1.00  0.00    -0.337 C  
HETATM    7  C   UNL     1     -10.670  16.311  65.096  1.00  0.00    -0.331 C  
HETATM    8  O   UNL     1     -11.331  17.198  64.575  1.00  0.00    -1.034 OA 
HETATM    9  C   UNL     1     -10.058  12.967  64.183  1.00  0.00    -0.187 C  
ENDROOT
BRANCH   7  10
HETATM   10  O   UNL     1      -9.472  16.514  65.696  1.00  0.00    -0.497 OA 
BRANCH  10  11
HETATM   11  C   UNL     1      -9.481  17.427  66.792  1.00  0.00    -0.273 C  
HETATM   12  N   UNL     1      -9.010  16.731  67.978  1.00  0.00    -0.213 N  
HETATM   13  C   UNL     1      -7.782  17.203  68.425  1.00  0.00    -0.237 C  
HETATM   14  C   UNL     1      -8.370  18.419  66.539  1.00  0.00    -0.272 A  
HETATM   15  N   UNL     1      -8.279  19.315  65.529  1.00  0.00    -0.205 NA 
HETATM   16  C   UNL     1      -7.381  18.262  67.489  1.00  0.00    -0.210 A  
HETATM   17  O   UNL     1      -7.159  16.886  69.421  1.00  0.00    -0.227 OA 
HETATM   18  C   UNL     1      -7.133  20.043  65.548  1.00  0.00    -0.310 A  
HETATM   19  N   UNL     1      -6.242  18.980  67.534  1.00  0.00    -0.184 NA 
HETATM   20  C   UNL     1      -6.145  19.881  66.525  1.00  0.00    -0.167 A  
BRANCH  12  21
HETATM   21  C   UNL     1      -9.867  15.903  68.709  1.00  0.00    -0.216 A  
HETATM   22 CL   UNL     1     -12.684  13.093  70.740  1.00  0.00    -0.308 Cl 
HETATM   23  C   UNL     1     -11.742  15.563  70.179  1.00  0.00    -0.367 A  
HETATM   24  C   UNL     1     -10.565  13.749  69.198  1.00  0.00    -0.072 A  
HETATM   25  N   UNL     1      -9.682  14.571  68.580  1.00  0.00    -0.219 NA 
HETATM   26  C   UNL     1     -10.876  16.431  69.510  1.00  0.00    -0.338 A  
HETATM   27  C   UNL     1     -11.600  14.195  69.999  1.00  0.00    -0.248 A  
ENDBRANCH  12  21
ENDBRANCH  10  11
ENDBRANCH   7  10
TORSDOF 3
ENDMDL
MODEL       10
REMARK 921   NORMALIZED FREE ENERGY PREDICTED BY IDOCK:   -6.75 KCAL/MOL
REMARK 922        TOTAL FREE ENERGY PREDICTED BY IDOCK:   -8.75 KCAL/MOL
REMARK 923 INTER-LIGAND FREE ENERGY PREDICTED BY IDOCK:   -8.50 KCAL/MOL
REMARK 924 INTRA-LIGAND FREE ENERGY PREDICTED BY IDOCK:   -0.25 KCAL/MOL
REMARK 927      BINDING AFFINITY PREDICTED BY RF-SCORE:    0.00 PKD
ROOT
HETATM    1  C   UNL     1      -9.630  20.437  67.064  1.00  0.00    -0.431 C  
HETATM    2  N   UNL     1     -10.408  19.240  66.748  1.00  0.00    -0.398 NA 
HETATM    3  C   UNL     1      -9.586  18.220  66.059  1.00  0.00    -0.058 C  
HETATM    4  C   UNL     1      -8.581  17.489  66.969  1.00  0.00    -0.235 C  
HETATM    5  N   UNL     1      -9.243  16.946  68.150  1.00  0.00    -0.228 N  
HETATM    6  C   UNL     1     -10.045  17.915  68.901  1.00  0.00    -0.348 C  
HETATM    7  C   UNL     1      -9.342  15.578  68.310  1.00  0.00    -0.192 C  
HETATM    8  O   UNL     1      -8.930  14.769  67.490  1.00  0.00    -0.175 OA 
HETATM    9  C   UNL     1     -11.027  18.650  67.960  1.00  0.00     0.053 C  
ENDROOT
BRANCH   7  10
HETATM   10  O   UNL     1      -9.916  15.237  69.488  1.00  0.00    -0.238 OA 
BRANCH  10  11
HETATM   11  C   UNL     1     -11.336  15.102  69.463  1.00  0.00    -0.285 C  
HETATM   12  N   UNL     1     -11.664  13.718  69.163  1.00  0.00    -0.310 N  
HETATM   13  C   UNL     1     -12.262  13.064  70.233  1.00  0.00    -0.296 C  
HETATM   14  C   UNL     1     -11.810  15.242  70.891  1.00  0.00    -0.341 A  
HETATM   15  N   UNL     1     -11.723  16.334  71.685  1.00  0.00    -0.475 NA 
HETATM   16  C   UNL     1     -12.330  14.040  71.329  1.00  0.00    -0.355 A  
HETATM   17  O   UNL     1     -12.717  11.936  70.280  1.00  0.00    -0.052 OA 
HETATM   18  C   UNL     1     -12.201  16.134  72.940  1.00  0.00    -0.541 A  
HETATM   19  N   UNL     1     -12.819  13.823  72.565  1.00  0.00    -0.289 NA 
HETATM   20  C   UNL     1     -12.736  14.914  73.365  1.00  0.00    -0.513 A  
BRANCH  12  21
HETATM   21  C   UNL     1     -11.634  13.245  67.847  1.00  0.00    -0.334 A  
HETATM   22 CL   UNL     1     -11.889  11.770  63.638  1.00  0.00    -0.543 Cl 
HETATM   23  C   UNL     1     -11.079  11.572  66.210  1.00  0.00    -0.321 A  
HETATM   24  C   UNL     1     -12.302  13.528  65.647  1.00  0.00    -0.476 A  
HETATM   25  N   UNL     1     -12.230  14.014  66.911  1.00  0.00    -0.426 NA 
HETATM   26  C   UNL     1     -11.038  12.028  67.529  1.00  0.00    -0.331 A  
HETATM   27  C   UNL     1     -11.747  12.323  65.255  1.00  0.00    -0.361 A  
ENDBRANCH  12  21
ENDBRANCH  10  11
ENDBRANCH   7  10
TORSDOF 3
ENDMDL
MODEL       11
REMARK 921   NORMALIZED FREE ENERGY PREDICTED BY IDOCK:   -6.71 KCAL/MOL
REMARK 922        TOTAL FREE ENERGY PREDICTED BY IDOCK:   -8.70 KCAL/MOL
REMARK 923 INTER-LIGAND FREE ENERGY PREDICTED BY IDOCK:   -7.62 KCAL/MOL
REMARK 924 INTRA-LIGAND FREE ENERGY PREDICTED BY IDOCK:   -1.08 KCAL/MOL
REMARK 927      BINDING AFFINITY PREDICTED BY RF-SCORE:    0.00 PKD
ROOT
HETATM    1  C   UNL     1      -6.850  18.575  68.689  1.00  0.00    -0.265 C  
HETATM    2  N   UNL     1      -6.237  17.397  68.077  1.00  0.00    -0.145 NA 
HETATM    3  C   UNL     1      -6.145  16.271  69.033  1.00  0.00    -0.142 C  
HETATM    4  C   UNL     1      -7.487  15.579  69.337  1.00  0.00    -0.219 C  
HETATM    5  N   UNL     1      -8.167  15.193  68.105  1.00  0.00    -0.141 N  
HETATM    6  C   UNL     1      -8.325  16.274  67.130  1.00  0.00    -0.191 C  
HETATM    7  C   UNL     1      -8.325  13.855  67.803  1.00  0.00    -0.174 C  
HETATM    8  O   UNL     1      -7.893  12.947  68.500  1.00  0.00    -0.134 OA 
HETATM    9  C   UNL     1      -6.969  16.964  66.862  1.00  0.00    -0.216 C  
ENDROOT
BRANCH   7  10
HETATM   10  O   UNL     1      -9.038  13.664  66.668  1.00  0.00    -0.238 OA 
BRANCH  10  11
HETATM   11  C   UNL     1     -10.169  12.803  66.790  1.00  0.00    -0.239 C  
HETATM   12  N   UNL     1     -11.357  13.621  66.973  1.00  0.00    -0.312 N  
HETATM   13  C   UNL     1     -12.226  13.552  65.892  1.00  0.00    -0.460 C  
HETATM   14  C   UNL     1     -10.403  12.197  65.426  1.00  0.00    -0.269 A  
HETATM   15  N   UNL     1      -9.585  11.362  64.744  1.00  0.00    -0.232 NA 
HETATM   16  C   UNL     1     -11.597  12.658  64.910  1.00  0.00    -0.334 A  
HETATM   17  O   UNL     1     -13.328  14.055  65.765  1.00  0.00    -0.543 OA 
HETATM   18  C   UNL     1     -10.056  11.021  63.516  1.00  0.00    -0.373 A  
HETATM   19  N   UNL     1     -12.088  12.325  63.701  1.00  0.00    -0.513 NA 
HETATM   20  C   UNL     1     -11.274  11.488  63.012  1.00  0.00     0.163 A  
BRANCH  12  21
HETATM   21  C   UNL     1     -11.673  14.154  68.226  1.00  0.00    -0.348 A  
HETATM   22 CL   UNL     1     -12.369  16.021  72.224  1.00  0.00    -0.547 Cl 
HETATM   23  C   UNL     1     -12.269  13.905  70.544  1.00  0.00    -0.443 A  
HETATM   24  C   UNL     1     -11.809  16.027  69.582  1.00  0.00    -0.229 A  
HETATM   25  N   UNL     1     -11.607  15.496  68.351  1.00  0.00    -0.367 NA 
HETATM   26  C   UNL     1     -12.014  13.332  69.297  1.00  0.00    -0.354 A  
HETATM   27  C   UNL     1     -12.138  15.278  70.697  1.00  0.00    -0.354 A  
ENDBRANCH  12  21
ENDBRANCH  10  11
ENDBRANCH   7  10
TORSDOF 3
ENDMDL
MODEL       12
REMARK 921   NORMALIZED FREE ENERGY PREDICTED BY IDOCK:   -6.68 KCAL/MOL
REMARK 922        TOTAL FREE ENERGY PREDICTED BY IDOCK:   -8.66 KCAL/MOL
REMARK 923 INTER-LIGAND FREE ENERGY PREDICTED BY IDOCK:   -7.79 KCAL/MOL
REMARK 924 INTRA-LIGAND FREE ENERGY PREDICTED BY IDOCK:   -0.87 KCAL/MOL
REMARK 927      BINDING AFFINITY PREDICTED BY RF-SCORE:    0.00 PKD
ROOT
HETATM    1  C   UNL     1      -5.250  17.219  69.627  1.00  0.00    -0.170 C  
HETATM    2  N   UNL     1      -5.194  15.974  68.862  1.00  0.00    -0.106 NA 
HETATM    3  C   UNL     1      -5.828  14.854  69.594  1.00  0.00    -0.108 C  
HETATM    4  C   UNL     1      -7.366  14.911  69.642  1.00  0.00    -0.153 C  
HETATM    5  N   UNL     1      -7.925  15.072  68.304  1.00  0.00    -0.123 N  
HETATM    6  C   UNL     1      -7.367  16.189  67.538  1.00  0.00    -0.159 C  
HETATM    7  C   UNL     1      -8.660  14.046  67.744  1.00  0.00    -0.183 C  
HETATM    8  O   UNL     1      -8.852  12.971  68.294  1.00  0.00    -0.189 OA 
HETATM    9  C   UNL     1      -5.823  16.119  67.527  1.00  0.00    -0.153 C  
ENDROOT
BRANCH   7  10
HETATM   10  O   UNL     1      -9.170  14.379  66.533  1.00  0.00    -0.267 OA 
BRANCH  10  11
HETATM   11  C   UNL     1     -10.568  14.659  66.511  1.00  0.00    -0.300 C  
HETATM   12  N   UNL     1     -10.782  15.892  65.772  1.00  0.00    -0.331 N  
HETATM   13  C   UNL     1     -11.454  15.690  64.574  1.00  0.00    -0.300 C  
HETATM   14  C   UNL     1     -11.203  13.628  65.607  1.00  0.00    -0.297 A  
HETATM   15  N   UNL     1     -11.266  12.290  65.799  1.00  0.00    -0.323 NA 
HETATM   16  C   UNL     1     -11.698  14.244  64.475  1.00  0.00    -0.418 A  
HETATM   17  O   UNL     1     -11.846  16.515  63.769  1.00  0.00    -1.011 OA 
HETATM   18  C   UNL     1     -11.867  11.622  64.781  1.00  0.00     0.008 A  
HETATM   19  N   UNL     1     -12.306  13.603  63.459  1.00  0.00    -0.744 NA 
HETATM   20  C   UNL     1     -12.374  12.261  63.646  1.00  0.00    -0.562 A  
BRANCH  12  21
HETATM   21  C   UNL     1     -10.581  17.135  66.381  1.00  0.00    -0.172 A  
HETATM   22 CL   UNL     1      -9.611  21.105  68.185  1.00  0.00     0.238 Cl 
HETATM   23  C   UNL     1     -10.498  18.555  68.322  1.00  0.00    -0.326 A  
HETATM   24  C   UNL     1      -9.879  19.332  66.165  1.00  0.00    -0.367 A  
HETATM   25  N   UNL     1     -10.179  18.146  65.581  1.00  0.00    -0.561 NA 
HETATM   26  C   UNL     1     -10.763  17.309  67.750  1.00  0.00    -0.333 A  
HETATM   27  C   UNL     1     -10.021  19.580  67.518  1.00  0.00    -0.380 A  
ENDBRANCH  12  21
ENDBRANCH  10  11
ENDBRANCH   7  10
TORSDOF 3
ENDMDL
MODEL       13
REMARK 921   NORMALIZED FREE ENERGY PREDICTED BY IDOCK:   -6.63 KCAL/MOL
REMARK 922        TOTAL FREE ENERGY PREDICTED BY IDOCK:   -8.60 KCAL/MOL
REMARK 923 INTER-LIGAND FREE ENERGY PREDICTED BY IDOCK:   -7.91 KCAL/MOL
REMARK 924 INTRA-LIGAND FREE ENERGY PREDICTED BY IDOCK:   -0.70 KCAL/MOL
REMARK 927      BINDING AFFINITY PREDICTED BY RF-SCORE:    0.00 PKD
ROOT
HETATM    1  C   UNL     1     -11.828  15.143  63.987  1.00  0.00     0.007 C  
HETATM    2  N   UNL     1     -12.294  13.757  64.005  1.00  0.00    -0.679 NA 
HETATM    3  C   UNL     1     -11.166  12.801  63.926  1.00  0.00    -0.440 C  
HETATM    4  C   UNL     1     -10.339  12.680  65.220  1.00  0.00    -0.289 C  
HETATM    5  N   UNL     1     -11.200  12.413  66.368  1.00  0.00    -0.301 N  
HETATM    6  C   UNL     1     -12.316  13.348  66.526  1.00  0.00    -0.295 C  
HETATM    7  C   UNL     1     -11.121  11.194  67.012  1.00  0.00    -0.273 C  
HETATM    8  O   UNL     1     -10.382  10.287  66.656  1.00  0.00    -0.227 OA 
HETATM    9  C   UNL     1     -13.113  13.467  65.207  1.00  0.00    -0.062 C  
ENDROOT
BRANCH   7  10
HETATM   10  O   UNL     1     -11.928  11.132  68.098  1.00  0.00    -0.615 OA 
BRANCH  10  11
HETATM   11  C   UNL     1     -11.278  11.294  69.357  1.00  0.00    -0.280 C  
HETATM   12  N   UNL     1     -11.908  12.397  70.064  1.00  0.00    -0.320 N  
HETATM   13  C   UNL     1     -12.598  11.984  71.196  1.00  0.00    -0.271 C  
HETATM   14  C   UNL     1     -11.669  10.105  70.204  1.00  0.00    -0.256 A  
HETATM   15  N   UNL     1     -11.367   8.804  69.986  1.00  0.00    -0.110 NA 
HETATM   16  C   UNL     1     -12.452  10.524  71.260  1.00  0.00    -0.419 A  
HETATM   17  O   UNL     1     -13.165  12.661  72.034  1.00  0.00    -0.461 OA 
HETATM   18  C   UNL     1     -11.901   7.960  70.907  1.00  0.00    -0.229 A  
HETATM   19  N   UNL     1     -12.982   9.707  72.190  1.00  0.00    -0.411 NA 
HETATM   20  C   UNL     1     -12.684   8.401  71.979  1.00  0.00    -0.360 A  
BRANCH  12  21
HETATM   21  C   UNL     1     -11.576  13.722  69.763  1.00  0.00    -0.257 A  
HETATM   22 CL   UNL     1     -10.236  17.918  69.018  1.00  0.00    -0.352 Cl 
HETATM   23  C   UNL     1     -12.091  16.072  69.694  1.00  0.00    -0.114 A  
HETATM   24  C   UNL     1      -9.950  15.233  69.100  1.00  0.00    -0.238 A  
HETATM   25  N   UNL     1     -10.327  13.946  69.301  1.00  0.00    -0.008 NA 
HETATM   26  C   UNL     1     -12.486  14.758  69.957  1.00  0.00    -0.327 A  
HETATM   27  C   UNL     1     -10.789  16.317  69.282  1.00  0.00    -0.318 A  
ENDBRANCH  12  21
ENDBRANCH  10  11
ENDBRANCH   7  10
TORSDOF 3
ENDMDL
MODEL       14
REMARK 921   NORMALIZED FREE ENERGY PREDICTED BY IDOCK:   -6.49 KCAL/MOL
REMARK 922        TOTAL FREE ENERGY PREDICTED BY IDOCK:   -8.44 KCAL/MOL
REMARK 923 INTER-LIGAND FREE ENERGY PREDICTED BY IDOCK:   -8.30 KCAL/MOL
REMARK 924 INTRA-LIGAND FREE ENERGY PREDICTED BY IDOCK:   -0.14 KCAL/MOL
REMARK 927      BINDING AFFINITY PREDICTED BY RF-SCORE:    0.00 PKD
ROOT
HETATM    1  C   UNL     1     -11.968  15.153  64.622  1.00  0.00    -0.298 C  
HETATM    2  N   UNL     1     -11.640  13.739  64.449  1.00  0.00    -0.393 NA 
HETATM    3  C   UNL     1     -10.227  13.461  64.790  1.00  0.00    -0.318 C  
HETATM    4  C   UNL     1      -9.916  13.487  66.298  1.00  0.00    -0.298 C  
HETATM    5  N   UNL     1     -10.833  12.624  67.036  1.00  0.00    -0.249 N  
HETATM    6  C   UNL     1     -12.252  12.874  66.773  1.00  0.00    -0.133 C  
HETATM    7  C   UNL     1     -10.354  11.484  67.650  1.00  0.00    -0.186 C  
HETATM    8  O   UNL     1      -9.188  11.121  67.588  1.00  0.00    -0.148 OA 
HETATM    9  C   UNL     1     -12.530  12.865  65.252  1.00  0.00    -0.493 C  
ENDROOT
BRANCH   7  10
HETATM   10  O   UNL     1     -11.313  10.834  68.352  1.00  0.00    -0.268 OA 
BRANCH  10  11
HETATM   11  C   UNL     1     -10.968  10.496  69.694  1.00  0.00    -0.283 C  
HETATM   12  N   UNL     1     -12.141  10.678  70.533  1.00  0.00    -0.324 N  
HETATM   13  C   UNL     1     -12.633   9.479  71.035  1.00  0.00    -0.253 C  
HETATM   14  C   UNL     1     -10.778   8.997  69.728  1.00  0.00    -0.225 A  
HETATM   15  N   UNL     1      -9.833   8.271  69.086  1.00  0.00    -0.175 NA 
HETATM   16  C   UNL     1     -11.767   8.420  70.499  1.00  0.00    -0.070 A  
HETATM   17  O   UNL     1     -13.548   9.297  71.817  1.00  0.00    -0.376 OA 
HETATM   18  C   UNL     1      -9.950   6.932  69.281  1.00  0.00    -0.159 A  
HETATM   19  N   UNL     1     -11.895   7.097  70.715  1.00  0.00    -0.333 NA 
HETATM   20  C   UNL     1     -10.951   6.363  70.075  1.00  0.00    -0.337 A  
BRANCH  12  21
HETATM   21  C   UNL     1     -12.506  11.949  70.987  1.00  0.00    -0.290 A  
HETATM   22 CL   UNL     1     -14.009  15.908  72.407  1.00  0.00    -0.473 Cl 
HETATM   23  C   UNL     1     -12.492  14.348  70.804  1.00  0.00    -0.423 A  
HETATM   24  C   UNL     1     -13.778  13.217  72.450  1.00  0.00    -0.578 A  
HETATM   25  N   UNL     1     -13.329  12.000  72.056  1.00  0.00    -0.454 NA 
HETATM   26  C   UNL     1     -12.058  13.102  70.347  1.00  0.00    -0.392 A  
HETATM   27  C   UNL     1     -13.391  14.407  71.859  1.00  0.00    -0.374 A  
ENDBRANCH  12  21
ENDBRANCH  10  11
ENDBRANCH   7  10
TORSDOF 3
ENDMDL
MODEL       15
REMARK 921   NORMALIZED FREE ENERGY PREDICTED BY IDOCK:   -6.43 KCAL/MOL
REMARK 922        TOTAL FREE ENERGY PREDICTED BY IDOCK:   -8.36 KCAL/MOL
REMARK 923 INTER-LIGAND FREE ENERGY PREDICTED BY IDOCK:   -7.40 KCAL/MOL
REMARK 924 INTRA-LIGAND FREE ENERGY PREDICTED BY IDOCK:   -0.96 KCAL/MOL
REMARK 927      BINDING AFFINITY PREDICTED BY RF-SCORE:    0.00 PKD
ROOT
HETATM    1  C   UNL     1      -8.711  19.063  67.496  1.00  0.00    -0.290 C  
HETATM    2  N   UNL     1      -9.756  18.129  67.076  1.00  0.00    -0.295 NA 
HETATM    3  C   UNL     1      -9.204  17.025  66.258  1.00  0.00    -0.247 C  
HETATM    4  C   UNL     1      -8.403  15.979  67.056  1.00  0.00    -0.219 C  
HETATM    5  N   UNL     1      -9.175  15.483  68.190  1.00  0.00    -0.187 N  
HETATM    6  C   UNL     1      -9.718  16.526  69.063  1.00  0.00    -0.258 C  
HETATM    7  C   UNL     1      -9.600  14.169  68.205  1.00  0.00    -0.218 C  
HETATM    8  O   UNL     1      -9.397  13.381  67.292  1.00  0.00    -0.216 OA 
HETATM    9  C   UNL     1     -10.496  17.573  68.234  1.00  0.00    -0.383 C  
ENDROOT
BRANCH   7  10
HETATM   10  O   UNL     1     -10.237  13.846  69.356  1.00  0.00     0.046 OA 
BRANCH  10  11
HETATM   11  C   UNL     1     -11.493  13.187  69.199  1.00  0.00    -0.305 C  
HETATM   12  N   UNL     1     -11.360  11.820  69.674  1.00  0.00    -0.245 N  
HETATM   13  C   UNL     1     -12.101  11.577  70.823  1.00  0.00    -0.309 C  
HETATM   14  C   UNL     1     -12.430  13.792  70.218  1.00  0.00    -0.289 A  
HETATM   15  N   UNL     1     -12.876  15.069  70.272  1.00  0.00    -0.275 NA 
HETATM   16  C   UNL     1     -12.760  12.845  71.166  1.00  0.00    -0.276 A  
HETATM   17  O   UNL     1     -12.261  10.529  71.422  1.00  0.00    -0.354 OA 
HETATM   18  C   UNL     1     -13.679  15.320  71.338  1.00  0.00    -0.518 A  
HETATM   19  N   UNL     1     -13.562  13.069  72.224  1.00  0.00    -0.573 NA 
HETATM   20  C   UNL     1     -14.014  14.346  72.284  1.00  0.00    -0.513 A  
BRANCH  12  21
HETATM   21  C   UNL     1     -10.784  10.834  68.866  1.00  0.00    -0.222 A  
HETATM   22 CL   UNL     1      -9.265   7.539  66.261  1.00  0.00    -0.210 Cl 
HETATM   23  C   UNL     1      -9.186   9.076  68.483  1.00  0.00    -0.136 A  
HETATM   24  C   UNL     1     -10.874   9.612  66.901  1.00  0.00    -0.036 A  
HETATM   25  N   UNL     1     -11.351  10.631  67.658  1.00  0.00    -0.448 NA 
HETATM   26  C   UNL     1      -9.694  10.086  69.303  1.00  0.00    -0.227 A  
HETATM   27  C   UNL     1      -9.805   8.816  67.269  1.00  0.00    -0.201 A  
ENDBRANCH  12  21
ENDBRANCH  10  11
ENDBRANCH   7  10
TORSDOF 3
ENDMDL
MODEL       16
REMARK 921   NORMALIZED FREE ENERGY PREDICTED BY IDOCK:   -6.38 KCAL/MOL
REMARK 922        TOTAL FREE ENERGY PREDICTED BY IDOCK:   -8.31 KCAL/MOL
REMARK 923 INTER-LIGAND FREE ENERGY PREDICTED BY IDOCK:   -7.41 KCAL/MOL
REMARK 924 INTRA-LIGAND FREE ENERGY PREDICTED BY IDOCK:   -0.90 KCAL/MOL
REMARK 927      BINDING AFFINITY PREDICTED BY RF-SCORE:    0.00 PKD
ROOT
HETATM    1  C   UNL     1      -9.191  16.930  67.432  1.00  0.00    -0.222 C  
HETATM    2  N   UNL     1      -9.444  16.643  68.843  1.00  0.00    -0.253 NA 
HETATM    3  C   UNL     1     -10.877  16.799  69.183  1.00  0.00    -0.287 C  
HETATM    4  C   UNL     1     -11.784  15.673  68.654  1.00  0.00    -0.352 C  
HETATM    5  N   UNL     1     -11.272  14.363  69.041  1.00  0.00    -0.251 N  
HETATM    6  C   UNL     1      -9.868  14.129  68.698  1.00  0.00    -0.206 C  
HETATM    7  C   UNL     1     -11.985  13.588  69.935  1.00  0.00    -0.348 C  
HETATM    8  O   UNL     1     -13.027  13.949  70.464  1.00  0.00    -0.240 OA 
HETATM    9  C   UNL     1      -8.984  15.285  69.221  1.00  0.00    -0.241 C  
ENDROOT
BRANCH   7  10
HETATM   10  O   UNL     1     -11.416  12.375  70.133  1.00  0.00    -0.138 OA 
BRANCH  10  11
HETATM   11  C   UNL     1     -12.103  11.271  69.546  1.00  0.00    -0.317 C  
HETATM   12  N   UNL     1     -11.163  10.524  68.727  1.00  0.00    -0.257 N  
HETATM   13  C   UNL     1     -10.894   9.260  69.237  1.00  0.00    -0.152 C  
HETATM   14  C   UNL     1     -12.397  10.299  70.665  1.00  0.00    -0.325 A  
HETATM   15  N   UNL     1     -13.202  10.494  71.735  1.00  0.00    -0.431 NA 
HETATM   16  C   UNL     1     -11.671   9.141  70.478  1.00  0.00    -0.152 A  
HETATM   17  O   UNL     1     -10.215   8.372  68.756  1.00  0.00    -0.199 OA 
HETATM   18  C   UNL     1     -13.229   9.442  72.594  1.00  0.00    -0.203 A  
HETATM   19  N   UNL     1     -11.691   8.082  71.311  1.00  0.00    -0.279 NA 
HETATM   20  C   UNL     1     -12.496   8.270  72.385  1.00  0.00    -0.302 A  
BRANCH  12  21
HETATM   21  C   UNL     1     -10.836  10.957  67.438  1.00  0.00    -0.279 A  
HETATM   22 CL   UNL     1     -10.085  12.183  63.209  1.00  0.00    -0.399 Cl 
HETATM   23  C   UNL     1      -9.343  11.061  65.554  1.00  0.00    -0.242 A  
HETATM   24  C   UNL     1     -11.522  12.003  65.489  1.00  0.00    -0.313 A  
HETATM   25  N   UNL     1     -11.778  11.661  66.776  1.00  0.00    -0.532 NA 
HETATM   26  C   UNL     1      -9.605  10.653  66.863  1.00  0.00    -0.200 A  
HETATM   27  C   UNL     1     -10.331  11.726  64.843  1.00  0.00    -0.289 A  
ENDBRANCH  12  21
ENDBRANCH  10  11
ENDBRANCH   7  10
TORSDOF 3
ENDMDL
MODEL       17
REMARK 921   NORMALIZED FREE ENERGY PREDICTED BY IDOCK:   -6.38 KCAL/MOL
REMARK 922        TOTAL FREE ENERGY PREDICTED BY IDOCK:   -8.30 KCAL/MOL
REMARK 923 INTER-LIGAND FREE ENERGY PREDICTED BY IDOCK:   -7.23 KCAL/MOL
REMARK 924 INTRA-LIGAND FREE ENERGY PREDICTED BY IDOCK:   -1.07 KCAL/MOL
REMARK 927      BINDING AFFINITY PREDICTED BY RF-SCORE:    0.00 PKD
ROOT
HETATM    1  C   UNL     1     -11.145   7.671  73.069  1.00  0.00    -0.381 C  
HETATM    2  N   UNL     1     -11.799   7.589  71.764  1.00  0.00    -0.283 NA 
HETATM    3  C   UNL     1     -12.677   8.757  71.519  1.00  0.00    -0.328 C  
HETATM    4  C   UNL     1     -11.927  10.066  71.210  1.00  0.00    -0.394 C  
HETATM    5  N   UNL     1     -10.963   9.874  70.131  1.00  0.00    -0.279 N  
HETATM    6  C   UNL     1     -10.037   8.756  70.330  1.00  0.00    -0.192 C  
HETATM    7  C   UNL     1     -11.163  10.501  68.917  1.00  0.00    -0.266 C  
HETATM    8  O   UNL     1     -12.136  11.198  68.666  1.00  0.00    -0.556 OA 
HETATM    9  C   UNL     1     -10.816   7.463  70.662  1.00  0.00    -0.242 C  
ENDROOT
BRANCH   7  10
HETATM   10  O   UNL     1     -10.145  10.282  68.051  1.00  0.00    -0.153 OA 
BRANCH  10  11
HETATM   11  C   UNL     1     -10.533   9.935  66.722  1.00  0.00    -0.191 C  
HETATM   12  N   UNL     1      -9.813  10.789  65.792  1.00  0.00    -0.227 N  
HETATM   13  C   UNL     1      -8.894  10.088  65.022  1.00  0.00    -0.186 C  
HETATM   14  C   UNL     1      -9.937   8.576  66.438  1.00  0.00    -0.244 A  
HETATM   15  N   UNL     1     -10.229   7.404  67.048  1.00  0.00    -0.259 NA 
HETATM   16  C   UNL     1      -8.972   8.687  65.457  1.00  0.00    -0.158 A  
HETATM   17  O   UNL     1      -8.195  10.493  64.111  1.00  0.00    -0.145 OA 
HETATM   18  C   UNL     1      -9.490   6.357  66.597  1.00  0.00    -0.161 A  
HETATM   19  N   UNL     1      -8.235   7.662  64.988  1.00  0.00    -0.134 NA 
HETATM   20  C   UNL     1      -8.523   6.483  65.594  1.00  0.00    -0.144 A  
BRANCH  12  21
HETATM   21  C   UNL     1     -10.246  12.094  65.538  1.00  0.00    -0.265 A  
HETATM   22 CL   UNL     1     -11.530  16.215  64.388  1.00  0.00    -0.364 Cl 
HETATM   23  C   UNL     1     -10.184  14.465  65.946  1.00  0.00    -0.341 A  
HETATM   24  C   UNL     1     -11.489  13.521  64.202  1.00  0.00    -0.360 A  
HETATM   25  N   UNL     1     -11.134  12.255  64.533  1.00  0.00    -0.306 NA 
HETATM   26  C   UNL     1      -9.763  13.173  66.272  1.00  0.00    -0.269 A  
HETATM   27  C   UNL     1     -11.044  14.645  64.873  1.00  0.00    -0.401 A  
ENDBRANCH  12  21
ENDBRANCH  10  11
ENDBRANCH   7  10
TORSDOF 3
ENDMDL
MODEL       18
REMARK 921   NORMALIZED FREE ENERGY PREDICTED BY IDOCK:   -6.36 KCAL/MOL
REMARK 922        TOTAL FREE ENERGY PREDICTED BY IDOCK:   -8.29 KCAL/MOL
REMARK 923 INTER-LIGAND FREE ENERGY PREDICTED BY IDOCK:   -7.74 KCAL/MOL
REMARK 924 INTRA-LIGAND FREE ENERGY PREDICTED BY IDOCK:   -0.55 KCAL/MOL
REMARK 927      BINDING AFFINITY PREDICTED BY RF-SCORE:    0.00 PKD
ROOT
HETATM    1  C   UNL     1      -9.351   8.753  65.725  1.00  0.00    -0.191 C  
HETATM    2  N   UNL     1      -8.834   9.950  66.387  1.00  0.00    -0.141 NA 
HETATM    3  C   UNL     1      -8.793  11.109  65.466  1.00  0.00    -0.136 C  
HETATM    4  C   UNL     1     -10.171  11.718  65.145  1.00  0.00    -0.268 C  
HETATM    5  N   UNL     1     -10.906  12.021  66.368  1.00  0.00    -0.266 N  
HETATM    6  C   UNL     1     -11.016  10.904  67.308  1.00  0.00    -0.294 C  
HETATM    7  C   UNL     1     -11.161  13.337  66.703  1.00  0.00    -0.306 C  
HETATM    8  O   UNL     1     -10.774  14.291  66.044  1.00  0.00    -0.293 OA 
HETATM    9  C   UNL     1      -9.624  10.297  67.593  1.00  0.00    -0.152 C  
ENDROOT
BRANCH   7  10
HETATM   10  O   UNL     1     -11.914  13.446  67.824  1.00  0.00    -0.351 OA 
BRANCH  10  11
HETATM   11  C   UNL     1     -11.188  13.660  69.033  1.00  0.00    -0.273 C  
HETATM   12  N   UNL     1     -11.367  15.044  69.442  1.00  0.00    -0.278 N  
HETATM   13  C   UNL     1     -12.102  15.166  70.614  1.00  0.00    -0.329 C  
HETATM   14  C   UNL     1     -11.922  12.907  70.118  1.00  0.00    -0.301 A  
HETATM   15  N   UNL     1     -12.096  11.569  70.220  1.00  0.00    -0.352 NA 
HETATM   16  C   UNL     1     -12.463  13.801  71.020  1.00  0.00    -0.380 A  
HETATM   17  O   UNL     1     -12.362  16.170  71.251  1.00  0.00    -0.387 OA 
HETATM   18  C   UNL     1     -12.842  11.197  71.292  1.00  0.00    -0.412 A  
HETATM   19  N   UNL     1     -13.196  13.454  72.095  1.00  0.00    -0.451 NA 
HETATM   20  C   UNL     1     -13.374  12.114  72.204  1.00  0.00    -0.333 A  
BRANCH  12  21
HETATM   21  C   UNL     1     -10.616  16.066  68.853  1.00  0.00    -0.257 A  
HETATM   22 CL   UNL     1      -8.337  19.220  66.660  1.00  0.00    -0.301 Cl 
HETATM   23  C   UNL     1      -8.530  17.189  68.433  1.00  0.00    -0.241 A  
HETATM   24  C   UNL     1     -10.551  17.847  67.374  1.00  0.00    -0.360 A  
HETATM   25  N   UNL     1     -11.277  16.912  68.035  1.00  0.00    -0.183 NA 
HETATM   26  C   UNL     1      -9.248  16.184  69.085  1.00  0.00    -0.246 A  
HETATM   27  C   UNL     1      -9.189  18.021  67.539  1.00  0.00    -0.253 A  
ENDBRANCH  12  21
ENDBRANCH  10  11
ENDBRANCH   7  10
TORSDOF 3
ENDMDL
MODEL       19
REMARK 921   NORMALIZED FREE ENERGY PREDICTED BY IDOCK:   -6.35 KCAL/MOL
REMARK 922        TOTAL FREE ENERGY PREDICTED BY IDOCK:   -8.27 KCAL/MOL
REMARK 923 INTER-LIGAND FREE ENERGY PREDICTED BY IDOCK:   -7.79 KCAL/MOL
REMARK 924 INTRA-LIGAND FREE ENERGY PREDICTED BY IDOCK:   -0.48 KCAL/MOL
REMARK 927      BINDING AFFINITY PREDICTED BY RF-SCORE:    0.00 PKD
ROOT
HETATM    1  C   UNL     1      -9.308   6.587  71.190  1.00  0.00    -0.163 C  
HETATM    2  N   UNL     1     -10.706   6.672  70.769  1.00  0.00    -0.229 NA 
HETATM    3  C   UNL     1     -11.605   6.943  71.914  1.00  0.00    -0.286 C  
HETATM    4  C   UNL     1     -11.540   8.385  72.450  1.00  0.00    -0.380 C  
HETATM    5  N   UNL     1     -11.724   9.352  71.373  1.00  0.00    -0.349 N  
HETATM    6  C   UNL     1     -10.835   9.163  70.223  1.00  0.00    -0.246 C  
HETATM    7  C   UNL     1     -12.859  10.138  71.347  1.00  0.00    -0.428 C  
HETATM    8  O   UNL     1     -13.760  10.054  72.169  1.00  0.00    -0.332 OA 
HETATM    9  C   UNL     1     -10.904   7.703  69.722  1.00  0.00    -0.217 C  
ENDROOT
BRANCH   7  10
HETATM   10  O   UNL     1     -12.843  11.032  70.330  1.00  0.00    -0.233 OA 
BRANCH  10  11
HETATM   11  C   UNL     1     -11.850  12.052  70.423  1.00  0.00    -0.212 C  
HETATM   12  N   UNL     1     -11.619  12.596  69.095  1.00  0.00    -0.302 N  
HETATM   13  C   UNL     1     -12.044  13.913  68.973  1.00  0.00    -0.329 C  
HETATM   14  C   UNL     1     -12.492  13.217  71.140  1.00  0.00    -0.308 A  
HETATM   15  N   UNL     1     -12.941  13.254  72.416  1.00  0.00    -0.290 NA 
HETATM   16  C   UNL     1     -12.613  14.286  70.275  1.00  0.00    -0.319 A  
HETATM   17  O   UNL     1     -11.928  14.668  68.025  1.00  0.00    -0.326 OA 
HETATM   18  C   UNL     1     -13.510  14.438  72.759  1.00  0.00    -0.485 A  
HETATM   19  N   UNL     1     -13.163  15.472  70.597  1.00  0.00    -0.436 NA 
HETATM   20  C   UNL     1     -13.615  15.516  71.875  1.00  0.00    -0.482 A  
BRANCH  12  21
HETATM   21  C   UNL     1     -10.795  11.929  68.183  1.00  0.00    -0.221 A  
HETATM   22 CL   UNL     1      -8.328   9.500  65.360  1.00  0.00    -0.134 Cl 
HETATM   23  C   UNL     1      -8.625  11.297  67.357  1.00  0.00    -0.136 A  
HETATM   24  C   UNL     1     -10.630  10.439  66.417  1.00  0.00    -0.127 A  
HETATM   25  N   UNL     1     -11.410  11.175  67.247  1.00  0.00    -0.457 NA 
HETATM   26  C   UNL     1      -9.408  12.024  68.257  1.00  0.00    -0.197 A  
HETATM   27  C   UNL     1      -9.247  10.467  66.436  1.00  0.00    -0.166 A  
ENDBRANCH  12  21
ENDBRANCH  10  11
ENDBRANCH   7  10
TORSDOF 3
ENDMDL
MODEL       20
REMARK 921   NORMALIZED FREE ENERGY PREDICTED BY IDOCK:   -6.35 KCAL/MOL
REMARK 922        TOTAL FREE ENERGY PREDICTED BY IDOCK:   -8.27 KCAL/MOL
REMARK 923 INTER-LIGAND FREE ENERGY PREDICTED BY IDOCK:   -7.90 KCAL/MOL
REMARK 924 INTRA-LIGAND FREE ENERGY PREDICTED BY IDOCK:   -0.37 KCAL/MOL
REMARK 927      BINDING AFFINITY PREDICTED BY RF-SCORE:    0.00 PKD
ROOT
HETATM    1  C   UNL     1      -7.940   8.430  65.547  1.00  0.00    -0.115 C  
HETATM    2  N   UNL     1      -7.762   9.797  65.060  1.00  0.00    -0.120 NA 
HETATM    3  C   UNL     1      -8.911  10.237  64.237  1.00  0.00    -0.234 C  
HETATM    4  C   UNL     1     -10.189  10.546  65.039  1.00  0.00    -0.295 C  
HETATM    5  N   UNL     1      -9.911  11.477  66.127  1.00  0.00    -0.216 N  
HETATM    6  C   UNL     1      -8.807  11.081  67.004  1.00  0.00    -0.143 C  
HETATM    7  C   UNL     1     -10.445  12.751  66.090  1.00  0.00    -0.267 C  
HETATM    8  O   UNL     1     -11.125  13.173  65.166  1.00  0.00    -0.280 OA 
HETATM    9  C   UNL     1      -7.546  10.754  66.172  1.00  0.00    -0.139 C  
ENDROOT
BRANCH   7  10
HETATM   10  O   UNL     1     -10.155  13.463  67.205  1.00  0.00    -0.234 OA 
BRANCH  10  11
HETATM   11  C   UNL     1     -11.212  14.283  67.702  1.00  0.00    -0.304 C  
HETATM   12  N   UNL     1     -11.208  14.213  69.154  1.00  0.00    -0.262 N  
HETATM   13  C   UNL     1     -10.855  15.418  69.748  1.00  0.00    -0.288 C  
HETATM   14  C   UNL     1     -10.805  15.716  67.448  1.00  0.00    -0.315 A  
HETATM   15  N   UNL     1     -10.623  16.322  66.251  1.00  0.00    -0.288 NA 
HETATM   16  C   UNL     1     -10.584  16.357  68.650  1.00  0.00    -0.305 A  
HETATM   17  O   UNL     1     -10.829  15.708  70.930  1.00  0.00    -0.315 OA 
HETATM   18  C   UNL     1     -10.213  17.612  66.352  1.00  0.00    -0.364 A  
HETATM   19  N   UNL     1     -10.188  17.638  68.773  1.00  0.00    -0.370 NA 
HETATM   20  C   UNL     1     -10.005  18.252  67.578  1.00  0.00    -0.335 A  
BRANCH  12  21
HETATM   21  C   UNL     1     -11.787  13.128  69.819  1.00  0.00    -0.316 A  
HETATM   22 CL   UNL     1     -13.494   9.787  72.244  1.00  0.00    -0.498 Cl 
HETATM   23  C   UNL     1     -12.103  10.765  70.142  1.00  0.00    -0.427 A  
HETATM   24  C   UNL     1     -13.057  12.375  71.604  1.00  0.00    -0.307 A  
HETATM   25  N   UNL     1     -12.569  13.414  70.882  1.00  0.00    -0.349 NA 
HETATM   26  C   UNL     1     -11.546  11.818  69.414  1.00  0.00    -0.386 A  
HETATM   27  C   UNL     1     -12.852  11.047  71.275  1.00  0.00    -0.425 A  
ENDBRANCH  12  21
ENDBRANCH  10  11
ENDBRANCH   7  10
TORSDOF 3
ENDMDL
MODEL       21
REMARK 921   NORMALIZED FREE ENERGY PREDICTED BY IDOCK:   -6.32 KCAL/MOL
REMARK 922        TOTAL FREE ENERGY PREDICTED BY IDOCK:   -8.24 KCAL/MOL
REMARK 923 INTER-LIGAND FREE ENERGY PREDICTED BY IDOCK:   -7.66 KCAL/MOL
REMARK 924 INTRA-LIGAND FREE ENERGY PREDICTED BY IDOCK:   -0.57 KCAL/MOL
REMARK 927      BINDING AFFINITY PREDICTED BY RF-SCORE:    0.00 PKD
ROOT
HETATM    1  C   UNL     1     -10.285  20.259  67.188  1.00  0.00    -0.359 C  
HETATM    2  N   UNL     1      -9.498  19.278  66.442  1.00  0.00    -0.353 NA 
HETATM    3  C   UNL     1      -8.291  18.862  67.192  1.00  0.00    -0.274 C  
HETATM    4  C   UNL     1      -8.571  17.929  68.385  1.00  0.00    -0.293 C  
HETATM    5  N   UNL     1      -9.378  16.785  67.976  1.00  0.00    -0.225 N  
HETATM    6  C   UNL     1     -10.609  17.129  67.260  1.00  0.00    -0.270 C  
HETATM    7  C   UNL     1      -8.826  15.519  67.992  1.00  0.00    -0.165 C  
HETATM    8  O   UNL     1      -7.666  15.290  68.302  1.00  0.00    -0.108 OA 
HETATM    9  C   UNL     1     -10.301  18.084  66.084  1.00  0.00    -0.366 C  
ENDROOT
BRANCH   7  10
HETATM   10  O   UNL     1      -9.723  14.561  67.657  1.00  0.00    -0.211 OA 
BRANCH  10  11
HETATM   11  C   UNL     1      -9.686  13.378  68.454  1.00  0.00    -0.201 C  
HETATM   12  N   UNL     1     -11.051  12.953  68.714  1.00  0.00    -0.253 N  
HETATM   13  C   UNL     1     -11.367  11.753  68.090  1.00  0.00    -0.284 C  
HETATM   14  C   UNL     1      -9.168  12.272  67.564  1.00  0.00    -0.181 A  
HETATM   15  N   UNL     1      -7.943  12.175  66.998  1.00  0.00    -0.162 NA 
HETATM   16  C   UNL     1     -10.166  11.343  67.348  1.00  0.00    -0.193 A  
HETATM   17  O   UNL     1     -12.391  11.098  68.166  1.00  0.00    -0.469 OA 
HETATM   18  C   UNL     1      -7.792  11.078  66.211  1.00  0.00    -0.141 A  
HETATM   19  N   UNL     1     -10.036  10.244  66.581  1.00  0.00    -0.207 NA 
HETATM   20  C   UNL     1      -8.809  10.139  66.012  1.00  0.00    -0.143 A  
BRANCH  12  21
HETATM   21  C   UNL     1     -11.811  13.561  69.718  1.00  0.00    -0.329 A  
HETATM   22 CL   UNL     1     -13.966  15.725  72.978  1.00  0.00    -0.523 Cl 
HETATM   23  C   UNL     1     -13.042  13.483  71.784  1.00  0.00    -0.475 A  
HETATM   24  C   UNL     1     -12.634  15.521  70.636  1.00  0.00    -0.443 A  
HETATM   25  N   UNL     1     -11.989  14.895  69.622  1.00  0.00    -0.311 NA 
HETATM   26  C   UNL     1     -12.335  12.823  70.776  1.00  0.00    -0.375 A  
HETATM   27  C   UNL     1     -13.172  14.863  71.727  1.00  0.00    -0.349 A  
ENDBRANCH  12  21
ENDBRANCH  10  11
ENDBRANCH   7  10
TORSDOF 3
ENDMDL
MODEL       22
REMARK 921   NORMALIZED FREE ENERGY PREDICTED BY IDOCK:   -6.31 KCAL/MOL
REMARK 922        TOTAL FREE ENERGY PREDICTED BY IDOCK:   -8.23 KCAL/MOL
REMARK 923 INTER-LIGAND FREE ENERGY PREDICTED BY IDOCK:   -7.33 KCAL/MOL
REMARK 924 INTRA-LIGAND FREE ENERGY PREDICTED BY IDOCK:   -0.89 KCAL/MOL
REMARK 927      BINDING AFFINITY PREDICTED BY RF-SCORE:    0.00 PKD
ROOT
HETATM    1  C   UNL     1     -13.379  16.283  73.667  1.00  0.00    -0.110 C  
HETATM    2  N   UNL     1     -12.119  15.825  73.084  1.00  0.00    -0.464 NA 
HETATM    3  C   UNL     1     -12.062  14.348  72.997  1.00  0.00     0.112 C  
HETATM    4  C   UNL     1     -12.948  13.739  71.895  1.00  0.00    -0.350 C  
HETATM    5  N   UNL     1     -12.687  14.370  70.605  1.00  0.00    -0.350 N  
HETATM    6  C   UNL     1     -12.766  15.832  70.613  1.00  0.00    -0.290 C  
HETATM    7  C   UNL     1     -12.103  13.636  69.592  1.00  0.00    -0.321 C  
HETATM    8  O   UNL     1     -11.749  12.472  69.715  1.00  0.00    -0.307 OA 
HETATM    9  C   UNL     1     -11.887  16.415  71.743  1.00  0.00    -0.321 C  
ENDROOT
BRANCH   7  10
HETATM   10  O   UNL     1     -11.996  14.342  68.440  1.00  0.00    -0.337 OA 
BRANCH  10  11
HETATM   11  C   UNL     1     -10.668  14.528  67.955  1.00  0.00    -0.245 C  
HETATM   12  N   UNL     1     -10.483  13.693  66.780  1.00  0.00    -0.268 N  
HETATM   13  C   UNL     1     -10.328  14.433  65.615  1.00  0.00    -0.342 C  
HETATM   14  C   UNL     1     -10.611  15.921  67.372  1.00  0.00    -0.315 A  
HETATM   15  N   UNL     1     -10.754  17.096  68.028  1.00  0.00    -0.383 NA 
HETATM   16  C   UNL     1     -10.430  15.846  66.005  1.00  0.00    -0.345 A  
HETATM   17  O   UNL     1     -10.085  14.042  64.488  1.00  0.00    -0.302 OA 
HETATM   18  C   UNL     1     -10.695  18.183  67.216  1.00  0.00    -0.315 A  
HETATM   19  N   UNL     1     -10.358  16.911  65.183  1.00  0.00    -0.592 NA 
HETATM   20  C   UNL     1     -10.500  18.092  65.834  1.00  0.00    -0.264 A  
BRANCH  12  21
HETATM   21  C   UNL     1     -10.205  12.329  66.908  1.00  0.00    -0.213 A  
HETATM   22 CL   UNL     1      -9.590   7.950  67.544  1.00  0.00    -0.177 Cl 
HETATM   23  C   UNL     1      -8.728  10.511  67.458  1.00  0.00    -0.125 A  
HETATM   24  C   UNL     1     -11.005  10.155  66.886  1.00  0.00    -0.036 A  
HETATM   25  N   UNL     1     -11.223  11.475  66.668  1.00  0.00    -0.321 NA 
HETATM   26  C   UNL     1      -8.943  11.880  67.291  1.00  0.00    -0.176 A  
HETATM   27  C   UNL     1      -9.786   9.632  67.278  1.00  0.00    -0.175 A  
ENDBRANCH  12  21
ENDBRANCH  10  11
ENDBRANCH   7  10
TORSDOF 3
ENDMDL
MODEL       23
REMARK 921   NORMALIZED FREE ENERGY PREDICTED BY IDOCK:   -6.28 KCAL/MOL
REMARK 922        TOTAL FREE ENERGY PREDICTED BY IDOCK:   -8.19 KCAL/MOL
REMARK 923 INTER-LIGAND FREE ENERGY PREDICTED BY IDOCK:   -9.00 KCAL/MOL
REMARK 924 INTRA-LIGAND FREE ENERGY PREDICTED BY IDOCK:    0.81 KCAL/MOL
REMARK 927      BINDING AFFINITY PREDICTED BY RF-SCORE:    0.00 PKD
ROOT
HETATM    1  C   UNL     1      -8.879  17.834  66.344  1.00  0.00    -0.231 C  
HETATM    2  N   UNL     1     -10.339  17.746  66.333  1.00  0.00    -0.363 NA 
HETATM    3  C   UNL     1     -10.835  17.066  65.114  1.00  0.00    -0.049 C  
HETATM    4  C   UNL     1     -10.610  15.543  65.097  1.00  0.00    -0.431 C  
HETATM    5  N   UNL     1     -11.126  14.924  66.313  1.00  0.00    -0.339 N  
HETATM    6  C   UNL     1     -10.642  15.527  67.558  1.00  0.00    -0.297 C  
HETATM    7  C   UNL     1     -12.215  14.078  66.241  1.00  0.00    -0.462 C  
HETATM    8  O   UNL     1     -12.813  13.831  65.203  1.00  0.00    -0.695 OA 
HETATM    9  C   UNL     1     -10.858  17.057  67.538  1.00  0.00    -0.203 C  
ENDROOT
BRANCH   7  10
HETATM   10  O   UNL     1     -12.522  13.530  67.441  1.00  0.00    -0.186 OA 
BRANCH  10  11
HETATM   11  C   UNL     1     -11.415  13.033  68.191  1.00  0.00    -0.319 C  
HETATM   12  N   UNL     1     -11.907  12.527  69.462  1.00  0.00    -0.317 N  
HETATM   13  C   UNL     1     -11.780  11.149  69.575  1.00  0.00    -0.335 C  
HETATM   14  C   UNL     1     -10.953  11.772  67.500  1.00  0.00    -0.256 A  
HETATM   15  N   UNL     1     -10.425  11.658  66.259  1.00  0.00    -0.238 NA 
HETATM   16  C   UNL     1     -11.190  10.682  68.313  1.00  0.00    -0.301 A  
HETATM   17  O   UNL     1     -12.027  10.435  70.530  1.00  0.00    -0.282 OA 
HETATM   18  C   UNL     1     -10.147  10.378  65.901  1.00  0.00    -0.261 A  
HETATM   19  N   UNL     1     -10.913   9.406  67.983  1.00  0.00    -0.131 NA 
HETATM   20  C   UNL     1     -10.382   9.285  66.741  1.00  0.00    -0.226 A  
BRANCH  12  21
HETATM   21  C   UNL     1     -12.185  13.399  70.519  1.00  0.00    -0.352 A  
HETATM   22 CL   UNL     1     -12.729  16.172  73.979  1.00  0.00    -0.657 Cl 
HETATM   23  C   UNL     1     -13.354  13.967  72.545  1.00  0.00    -0.639 A  
HETATM   24  C   UNL     1     -11.639  15.346  71.650  1.00  0.00    -0.423 A  
HETATM   25  N   UNL     1     -11.459  14.535  70.578  1.00  0.00    -0.230 NA 
HETATM   26  C   UNL     1     -13.148  13.091  71.476  1.00  0.00    -0.400 A  
HETATM   27  C   UNL     1     -12.565  15.104  72.648  1.00  0.00    -0.375 A  
ENDBRANCH  12  21
ENDBRANCH  10  11
ENDBRANCH   7  10
TORSDOF 3
ENDMDL
MODEL       24
REMARK 921   NORMALIZED FREE ENERGY PREDICTED BY IDOCK:   -6.23 KCAL/MOL
REMARK 922        TOTAL FREE ENERGY PREDICTED BY IDOCK:   -8.13 KCAL/MOL
REMARK 923 INTER-LIGAND FREE ENERGY PREDICTED BY IDOCK:   -7.32 KCAL/MOL
REMARK 924 INTRA-LIGAND FREE ENERGY PREDICTED BY IDOCK:   -0.81 KCAL/MOL
REMARK 927      BINDING AFFINITY PREDICTED BY RF-SCORE:    0.00 PKD
ROOT
HETATM    1  C   UNL     1      -5.746   8.752  63.384  1.00  0.00    -0.076 C  
HETATM    2  N   UNL     1      -7.176   9.004  63.212  1.00  0.00    -0.092 NA 
HETATM    3  C   UNL     1      -7.995   7.904  63.772  1.00  0.00    -0.119 C  
HETATM    4  C   UNL     1      -8.051   7.869  65.311  1.00  0.00    -0.135 C  
HETATM    5  N   UNL     1      -8.441   9.167  65.850  1.00  0.00    -0.135 N  
HETATM    6  C   UNL     1      -7.643  10.296  65.365  1.00  0.00    -0.146 C  
HETATM    7  C   UNL     1      -9.658   9.304  66.489  1.00  0.00    -0.224 C  
HETATM    8  O   UNL     1     -10.466   8.394  66.608  1.00  0.00    -0.294 OA 
HETATM    9  C   UNL     1      -7.585  10.293  63.820  1.00  0.00    -0.092 C  
ENDROOT
BRANCH   7  10
HETATM   10  O   UNL     1      -9.837  10.547  66.995  1.00  0.00    -0.173 OA 
BRANCH  10  11
HETATM   11  C   UNL     1     -11.187  10.901  67.291  1.00  0.00    -0.233 C  
HETATM   12  N   UNL     1     -11.233  11.480  68.623  1.00  0.00    -0.224 N  
HETATM   13  C   UNL     1     -11.556  12.831  68.610  1.00  0.00    -0.314 C  
HETATM   14  C   UNL     1     -11.527  12.084  66.414  1.00  0.00    -0.353 A  
HETATM   15  N   UNL     1     -11.600  12.114  65.063  1.00  0.00    -0.328 NA 
HETATM   16  C   UNL     1     -11.721  13.203  67.198  1.00  0.00    -0.377 A  
HETATM   17  O   UNL     1     -11.744  13.581  69.551  1.00  0.00    -0.287 OA 
HETATM   18  C   UNL     1     -11.888  13.343  64.562  1.00  0.00    -0.398 A  
HETATM   19  N   UNL     1     -12.018  14.428  66.723  1.00  0.00    -0.417 NA 
HETATM   20  C   UNL     1     -12.094  14.466  65.370  1.00  0.00    -0.364 A  
BRANCH  12  21
HETATM   21  C   UNL     1     -11.237  10.664  69.758  1.00  0.00    -0.297 A  
HETATM   22 CL   UNL     1     -11.112   7.799  73.184  1.00  0.00    -0.429 Cl 
HETATM   23  C   UNL     1     -12.372   9.572  71.578  1.00  0.00    -0.465 A  
HETATM   24  C   UNL     1     -10.066   9.215  71.135  1.00  0.00    -0.314 A  
HETATM   25  N   UNL     1     -10.064  10.090  70.100  1.00  0.00    -0.249 NA 
HETATM   26  C   UNL     1     -12.405  10.437  70.483  1.00  0.00    -0.410 A  
HETATM   27  C   UNL     1     -11.185   8.927  71.895  1.00  0.00    -0.377 A  
ENDBRANCH  12  21
ENDBRANCH  10  11
ENDBRANCH   7  10
TORSDOF 3
ENDMDL
MODEL       25
REMARK 921   NORMALIZED FREE ENERGY PREDICTED BY IDOCK:   -6.23 KCAL/MOL
REMARK 922        TOTAL FREE ENERGY PREDICTED BY IDOCK:   -8.13 KCAL/MOL
REMARK 923 INTER-LIGAND FREE ENERGY PREDICTED BY IDOCK:   -7.70 KCAL/MOL
REMARK 924 INTRA-LIGAND FREE ENERGY PREDICTED BY IDOCK:   -0.43 KCAL/MOL
REMARK 927      BINDING AFFINITY PREDICTED BY RF-SCORE:    0.00 PKD
ROOT
HETATM    1  C   UNL     1      -8.149   5.747  72.928  1.00  0.00    -0.115 C  
HETATM    2  N   UNL     1      -9.172   5.890  71.893  1.00  0.00    -0.148 NA 
HETATM    3  C   UNL     1     -10.499   6.193  72.476  1.00  0.00    -0.201 C  
HETATM    4  C   UNL     1     -10.649   7.630  73.010  1.00  0.00    -0.375 C  
HETATM    5  N   UNL     1     -10.263   8.607  71.998  1.00  0.00    -0.321 N  
HETATM    6  C   UNL     1      -8.941   8.386  71.407  1.00  0.00    -0.186 C  
HETATM    7  C   UNL     1     -11.220   9.439  71.451  1.00  0.00    -0.381 C  
HETATM    8  O   UNL     1     -12.407   9.388  71.742  1.00  0.00    -0.350 OA 
HETATM    9  C   UNL     1      -8.811   6.931  70.902  1.00  0.00    -0.149 C  
ENDROOT
BRANCH   7  10
HETATM   10  O   UNL     1     -10.691  10.334  70.584  1.00  0.00    -0.258 OA 
BRANCH  10  11
HETATM   11  C   UNL     1     -11.567  10.782  69.551  1.00  0.00    -0.303 C  
HETATM   12  N   UNL     1     -11.415  12.220  69.406  1.00  0.00    -0.282 N  
HETATM   13  C   UNL     1     -10.841  12.579  68.193  1.00  0.00    -0.222 C  
HETATM   14  C   UNL     1     -11.002  10.266  68.249  1.00  0.00    -0.264 A  
HETATM   15  N   UNL     1     -10.871   8.976  67.860  1.00  0.00    -0.126 NA 
HETATM   16  C   UNL     1     -10.568  11.325  67.478  1.00  0.00    -0.218 A  
HETATM   17  O   UNL     1     -10.648  13.692  67.739  1.00  0.00    -0.238 OA 
HETATM   18  C   UNL     1     -10.283   8.830  66.645  1.00  0.00    -0.270 A  
HETATM   19  N   UNL     1      -9.992  11.204  66.266  1.00  0.00    -0.212 NA 
HETATM   20  C   UNL     1      -9.859   9.914  65.870  1.00  0.00    -0.274 A  
BRANCH  12  21
HETATM   21  C   UNL     1     -12.059  13.099  70.282  1.00  0.00    -0.328 A  
HETATM   22 CL   UNL     1     -13.795  16.017  73.185  1.00  0.00    -0.539 Cl 
HETATM   23  C   UNL     1     -13.565  13.551  72.104  1.00  0.00    -0.651 A  
HETATM   24  C   UNL     1     -12.252  15.257  71.102  1.00  0.00    -0.350 A  
HETATM   25  N   UNL     1     -11.718  14.403  70.195  1.00  0.00    -0.288 NA 
HETATM   26  C   UNL     1     -12.988  12.643  71.213  1.00  0.00    -0.306 A  
HETATM   27  C   UNL     1     -13.170  14.880  72.065  1.00  0.00    -0.350 A  
ENDBRANCH  12  21
ENDBRANCH  10  11
ENDBRANCH   7  10
TORSDOF 3
ENDMDL
MODEL       26
REMARK 921   NORMALIZED FREE ENERGY PREDICTED BY IDOCK:   -6.22 KCAL/MOL
REMARK 922        TOTAL FREE ENERGY PREDICTED BY IDOCK:   -8.12 KCAL/MOL
REMARK 923 INTER-LIGAND FREE ENERGY PREDICTED BY IDOCK:   -7.12 KCAL/MOL
REMARK 924 INTRA-LIGAND FREE ENERGY PREDICTED BY IDOCK:   -0.99 KCAL/MOL
REMARK 927      BINDING AFFINITY PREDICTED BY RF-SCORE:    0.00 PKD
ROOT
HETATM    1  C   UNL     1      -8.497  11.215  62.361  1.00  0.00    -0.216 C  
HETATM    2  N   UNL     1      -9.537  10.329  62.884  1.00  0.00    -0.302 NA 
HETATM    3  C   UNL     1      -8.962   9.241  63.708  1.00  0.00    -0.040 C  
HETATM    4  C   UNL     1      -8.459   9.687  65.093  1.00  0.00    -0.150 C  
HETATM    5  N   UNL     1      -9.490  10.427  65.812  1.00  0.00    -0.185 N  
HETATM    6  C   UNL     1     -10.074  11.544  65.065  1.00  0.00    -0.270 C  
HETATM    7  C   UNL     1     -10.056   9.882  66.948  1.00  0.00    -0.225 C  
HETATM    8  O   UNL     1      -9.766   8.778  67.385  1.00  0.00    -0.157 OA 
HETATM    9  C   UNL     1     -10.549  11.073  63.671  1.00  0.00    -0.269 C  
ENDROOT
BRANCH   7  10
HETATM   10  O   UNL     1     -10.940  10.722  67.537  1.00  0.00    -0.273 OA 
BRANCH  10  11
HETATM   11  C   UNL     1     -10.494  11.335  68.745  1.00  0.00    -0.208 C  
HETATM   12  N   UNL     1     -10.942  12.718  68.756  1.00  0.00    -0.247 N  
HETATM   13  C   UNL     1     -11.896  12.964  69.736  1.00  0.00    -0.310 C  
HETATM   14  C   UNL     1     -11.305  10.725  69.865  1.00  0.00    -0.311 A  
HETATM   15  N   UNL     1     -11.302   9.436  70.278  1.00  0.00    -0.243 NA 
HETATM   16  C   UNL     1     -12.128  11.685  70.419  1.00  0.00    -0.373 A  
HETATM   17  O   UNL     1     -12.412  14.021  70.050  1.00  0.00    -0.335 OA 
HETATM   18  C   UNL     1     -12.176   9.186  71.286  1.00  0.00    -0.327 A  
HETATM   19  N   UNL     1     -12.995  11.461  71.426  1.00  0.00    -0.412 NA 
HETATM   20  C   UNL     1     -12.996  10.171  71.845  1.00  0.00    -0.447 A  
BRANCH  12  21
HETATM   21  C   UNL     1     -10.247  13.700  68.045  1.00  0.00    -0.248 A  
HETATM   22 CL   UNL     1      -7.890  16.948  66.082  1.00  0.00    -0.341 Cl 
HETATM   23  C   UNL     1     -10.181  15.597  66.566  1.00  0.00    -0.291 A  
HETATM   24  C   UNL     1      -8.229  14.757  67.625  1.00  0.00    -0.175 A  
HETATM   25  N   UNL     1      -8.910  13.749  68.224  1.00  0.00    -0.183 NA 
HETATM   26  C   UNL     1     -10.911  14.599  67.214  1.00  0.00    -0.317 A  
HETATM   27  C   UNL     1      -8.817  15.695  66.796  1.00  0.00    -0.272 A  
ENDBRANCH  12  21
ENDBRANCH  10  11
ENDBRANCH   7  10
TORSDOF 3
ENDMDL
MODEL       27
REMARK 921   NORMALIZED FREE ENERGY PREDICTED BY IDOCK:   -6.18 KCAL/MOL
REMARK 922        TOTAL FREE ENERGY PREDICTED BY IDOCK:   -8.08 KCAL/MOL
REMARK 923 INTER-LIGAND FREE ENERGY PREDICTED BY IDOCK:   -7.10 KCAL/MOL
REMARK 924 INTRA-LIGAND FREE ENERGY PREDICTED BY IDOCK:   -0.97 KCAL/MOL
REMARK 927      BINDING AFFINITY PREDICTED BY RF-SCORE:    0.00 PKD
ROOT
HETATM    1  C   UNL     1     -12.035  15.089  64.214  1.00  0.00    -0.295 C  
HETATM    2  N   UNL     1     -12.558  13.740  64.426  1.00  0.00    -0.666 NA 
HETATM    3  C   UNL     1     -11.931  12.761  63.509  1.00  0.00    -0.555 C  
HETATM    4  C   UNL     1     -10.477  12.397  63.861  1.00  0.00    -0.439 C  
HETATM    5  N   UNL     1     -10.364  11.985  65.256  1.00  0.00    -0.265 N  
HETATM    6  C   UNL     1     -10.932  12.930  66.220  1.00  0.00    -0.281 C  
HETATM    7  C   UNL     1     -10.046  10.676  65.558  1.00  0.00    -0.280 C  
HETATM    8  O   UNL     1      -9.881   9.807  64.713  1.00  0.00    -0.258 OA 
HETATM    9  C   UNL     1     -12.382  13.296  65.829  1.00  0.00    -0.447 C  
ENDROOT
BRANCH   7  10
HETATM   10  O   UNL     1      -9.907  10.473  66.890  1.00  0.00    -0.181 OA 
BRANCH  10  11
HETATM   11  C   UNL     1     -10.778   9.496  67.457  1.00  0.00    -0.245 C  
HETATM   12  N   UNL     1      -9.972   8.417  68.002  1.00  0.00    -0.174 N  
HETATM   13  C   UNL     1     -10.036   8.347  69.388  1.00  0.00    -0.198 C  
HETATM   14  C   UNL     1     -11.372  10.114  68.701  1.00  0.00    -0.112 A  
HETATM   15  N   UNL     1     -12.193  11.187  68.776  1.00  0.00    -0.535 NA 
HETATM   16  C   UNL     1     -10.915   9.444  69.817  1.00  0.00    -0.215 A  
HETATM   17  O   UNL     1      -9.541   7.523  70.135  1.00  0.00    -0.168 OA 
HETATM   18  C   UNL     1     -12.525  11.530  70.048  1.00  0.00    -0.122 A  
HETATM   19  N   UNL     1     -11.240   9.760  71.086  1.00  0.00    -0.370 NA 
HETATM   20  C   UNL     1     -12.063  10.833  71.169  1.00  0.00    -0.309 A  
BRANCH  12  21
HETATM   21  C   UNL     1      -9.454   7.419  67.171  1.00  0.00    -0.149 A  
HETATM   22 CL   UNL     1      -7.740   4.484  64.272  1.00  0.00    -0.076 Cl 
HETATM   23  C   UNL     1      -9.665   5.350  65.961  1.00  0.00    -0.134 A  
HETATM   24  C   UNL     1      -7.726   6.711  65.800  1.00  0.00    -0.092 A  
HETATM   25  N   UNL     1      -8.208   7.614  66.689  1.00  0.00    -0.121 NA 
HETATM   26  C   UNL     1     -10.203   6.294  66.838  1.00  0.00    -0.268 A  
HETATM   27  C   UNL     1      -8.412   5.576  65.410  1.00  0.00    -0.146 A  
ENDBRANCH  12  21
ENDBRANCH  10  11
ENDBRANCH   7  10
TORSDOF 3
ENDMDL
MODEL       28
REMARK 921   NORMALIZED FREE ENERGY PREDICTED BY IDOCK:   -6.09 KCAL/MOL
REMARK 922        TOTAL FREE ENERGY PREDICTED BY IDOCK:   -7.97 KCAL/MOL
REMARK 923 INTER-LIGAND FREE ENERGY PREDICTED BY IDOCK:   -6.91 KCAL/MOL
REMARK 924 INTRA-LIGAND FREE ENERGY PREDICTED BY IDOCK:   -1.06 KCAL/MOL
REMARK 927      BINDING AFFINITY PREDICTED BY RF-SCORE:    0.00 PKD
ROOT
HETATM    1  C   UNL     1      -8.966  11.330  62.720  1.00  0.00    -0.249 C  
HETATM    2  N   UNL     1     -10.049  10.675  63.452  1.00  0.00    -0.278 NA 
HETATM    3  C   UNL     1      -9.529   9.762  64.495  1.00  0.00    -0.202 C  
HETATM    4  C   UNL     1      -8.944  10.472  65.731  1.00  0.00    -0.180 C  
HETATM    5  N   UNL     1      -9.892  11.438  66.276  1.00  0.00    -0.212 N  
HETATM    6  C   UNL     1     -10.416  12.397  65.301  1.00  0.00    -0.286 C  
HETATM    7  C   UNL     1     -10.455  11.216  67.517  1.00  0.00    -0.204 C  
HETATM    8  O   UNL     1     -10.234  10.222  68.194  1.00  0.00    -0.152 OA 
HETATM    9  C   UNL     1     -10.974  11.659  64.063  1.00  0.00    -0.387 C  
ENDROOT
BRANCH   7  10
HETATM   10  O   UNL     1     -11.253  12.238  67.911  1.00  0.00    -0.239 OA 
BRANCH  10  11
HETATM   11  C   UNL     1     -10.803  12.963  69.054  1.00  0.00    -0.145 C  
HETATM   12  N   UNL     1     -10.954  14.384  68.790  1.00  0.00    -0.241 N  
HETATM   13  C   UNL     1     -11.922  14.978  69.589  1.00  0.00    -0.321 C  
HETATM   14  C   UNL     1     -11.823  12.729  70.145  1.00  0.00    -0.251 A  
HETATM   15  N   UNL     1     -12.126  11.558  70.752  1.00  0.00    -0.354 NA 
HETATM   16  C   UNL     1     -12.477  13.910  70.431  1.00  0.00    -0.334 A  
HETATM   17  O   UNL     1     -12.234  16.153  69.665  1.00  0.00    -0.156 OA 
HETATM   18  C   UNL     1     -13.122  11.662  71.668  1.00  0.00    -0.351 A  
HETATM   19  N   UNL     1     -13.460  14.038  71.343  1.00  0.00    -0.318 NA 
HETATM   20  C   UNL     1     -13.768  12.869  71.956  1.00  0.00    -0.305 A  
BRANCH  12  21
HETATM   21  C   UNL     1     -10.007  15.074  68.026  1.00  0.00    -0.219 A  
HETATM   22 CL   UNL     1      -6.941  17.497  65.863  1.00  0.00    -0.285 Cl 
HETATM   23  C   UNL     1      -9.359  16.304  66.063  1.00  0.00    -0.361 A  
HETATM   24  C   UNL     1      -7.889  16.003  67.903  1.00  0.00    -0.138 A  
HETATM   25  N   UNL     1      -8.789  15.249  68.581  1.00  0.00    -0.177 NA 
HETATM   26  C   UNL     1     -10.320  15.575  66.766  1.00  0.00    -0.288 A  
HETATM   27  C   UNL     1      -8.127  16.546  66.654  1.00  0.00    -0.278 A  
ENDBRANCH  12  21
ENDBRANCH  10  11
ENDBRANCH   7  10
TORSDOF 3
ENDMDL
MODEL       29
REMARK 921   NORMALIZED FREE ENERGY PREDICTED BY IDOCK:   -6.08 KCAL/MOL
REMARK 922        TOTAL FREE ENERGY PREDICTED BY IDOCK:   -7.96 KCAL/MOL
REMARK 923 INTER-LIGAND FREE ENERGY PREDICTED BY IDOCK:   -8.43 KCAL/MOL
REMARK 924 INTRA-LIGAND FREE ENERGY PREDICTED BY IDOCK:    0.47 KCAL/MOL
REMARK 927      BINDING AFFINITY PREDICTED BY RF-SCORE:    0.00 PKD
ROOT
HETATM    1  C   UNL     1     -12.289   7.249  71.275  1.00  0.00    -0.366 C  
HETATM    2  N   UNL     1     -10.992   7.918  71.372  1.00  0.00    -0.229 NA 
HETATM    3  C   UNL     1     -10.192   7.738  70.139  1.00  0.00    -0.205 C  
HETATM    4  C   UNL     1     -10.679   8.565  68.935  1.00  0.00    -0.073 C  
HETATM    5  N   UNL     1     -10.821   9.973  69.290  1.00  0.00    -0.221 N  
HETATM    6  C   UNL     1     -11.636  10.224  70.482  1.00  0.00    -0.338 C  
HETATM    7  C   UNL     1      -9.978  10.909  68.724  1.00  0.00    -0.195 C  
HETATM    8  O   UNL     1      -9.075  10.627  67.949  1.00  0.00    -0.142 OA 
HETATM    9  C   UNL     1     -11.140   9.364  71.666  1.00  0.00    -0.339 C  
ENDROOT
BRANCH   7  10
HETATM   10  O   UNL     1     -10.286  12.174  69.099  1.00  0.00    -0.052 OA 
BRANCH  10  11
HETATM   11  C   UNL     1     -11.572  12.639  68.691  1.00  0.00    -0.316 C  
HETATM   12  N   UNL     1     -11.681  14.049  69.027  1.00  0.00    -0.307 N  
HETATM   13  C   UNL     1     -11.738  14.865  67.904  1.00  0.00    -0.321 C  
HETATM   14  C   UNL     1     -11.564  12.668  67.181  1.00  0.00    -0.368 A  
HETATM   15  N   UNL     1     -11.452  11.616  66.337  1.00  0.00    -0.420 NA 
HETATM   16  C   UNL     1     -11.644  13.973  66.740  1.00  0.00    -0.386 A  
HETATM   17  O   UNL     1     -11.902  16.070  67.843  1.00  0.00    -0.063 OA 
HETATM   18  C   UNL     1     -11.434  11.969  65.026  1.00  0.00    -0.286 A  
HETATM   19  N   UNL     1     -11.638  14.346  65.445  1.00  0.00    -0.339 NA 
HETATM   20  C   UNL     1     -11.527  13.296  64.594  1.00  0.00    -0.342 A  
BRANCH  12  21
HETATM   21  C   UNL     1     -11.989  14.453  70.330  1.00  0.00    -0.321 A  
HETATM   22 CL   UNL     1     -12.624  15.738  74.561  1.00  0.00    -0.708 Cl 
HETATM   23  C   UNL     1     -13.109  14.138  72.436  1.00  0.00    -0.525 A  
HETATM   24  C   UNL     1     -11.573  15.914  72.078  1.00  0.00    -0.428 A  
HETATM   25  N   UNL     1     -11.369  15.562  70.785  1.00  0.00    -0.324 NA 
HETATM   26  C   UNL     1     -12.874  13.727  71.122  1.00  0.00    -0.409 A  
HETATM   27  C   UNL     1     -12.425  15.238  72.933  1.00  0.00    -0.406 A  
ENDBRANCH  12  21
ENDBRANCH  10  11
ENDBRANCH   7  10
TORSDOF 3
ENDMDL
MODEL       30
REMARK 921   NORMALIZED FREE ENERGY PREDICTED BY IDOCK:   -6.08 KCAL/MOL
REMARK 922        TOTAL FREE ENERGY PREDICTED BY IDOCK:   -7.96 KCAL/MOL
REMARK 923 INTER-LIGAND FREE ENERGY PREDICTED BY IDOCK:   -7.11 KCAL/MOL
REMARK 924 INTRA-LIGAND FREE ENERGY PREDICTED BY IDOCK:   -0.84 KCAL/MOL
REMARK 927      BINDING AFFINITY PREDICTED BY RF-SCORE:    0.00 PKD
ROOT
HETATM    1  C   UNL     1     -13.923   8.551  71.958  1.00  0.00    -0.433 C  
HETATM    2  N   UNL     1     -12.828   9.465  72.278  1.00  0.00    -0.390 NA 
HETATM    3  C   UNL     1     -11.516   8.908  71.877  1.00  0.00    -0.372 C  
HETATM    4  C   UNL     1     -11.256   8.917  70.359  1.00  0.00    -0.230 C  
HETATM    5  N   UNL     1     -11.478  10.245  69.797  1.00  0.00    -0.259 N  
HETATM    6  C   UNL     1     -12.776  10.839  70.126  1.00  0.00    -0.167 C  
HETATM    7  C   UNL     1     -10.410  10.961  69.295  1.00  0.00    -0.187 C  
HETATM    8  O   UNL     1      -9.254  10.561  69.319  1.00  0.00    -0.191 OA 
HETATM    9  C   UNL     1     -13.020  10.795  71.652  1.00  0.00    -0.476 C  
ENDROOT
BRANCH   7  10
HETATM   10  O   UNL     1     -10.792  12.139  68.746  1.00  0.00    -0.221 OA 
BRANCH  10  11
HETATM   11  C   UNL     1      -9.749  12.901  68.140  1.00  0.00    -0.227 C  
HETATM   12  N   UNL     1      -9.870  12.785  66.696  1.00  0.00    -0.244 N  
HETATM   13  C   UNL     1     -10.225  13.983  66.089  1.00  0.00    -0.302 C  
HETATM   14  C   UNL     1     -10.083  14.356  68.374  1.00  0.00    -0.244 A  
HETATM   15  N   UNL     1     -10.147  15.007  69.559  1.00  0.00    -0.199 NA 
HETATM   16  C   UNL     1     -10.374  14.966  67.170  1.00  0.00    -0.260 A  
HETATM   17  O   UNL     1     -10.334  14.235  64.903  1.00  0.00    -0.418 OA 
HETATM   18  C   UNL     1     -10.517  16.308  69.445  1.00  0.00    -0.292 A  
HETATM   19  N   UNL     1     -10.732  16.257  67.034  1.00  0.00    -0.279 NA 
HETATM   20  C   UNL     1     -10.798  16.915  68.217  1.00  0.00    -0.357 A  
BRANCH  12  21
HETATM   21  C   UNL     1      -9.384  11.657  66.026  1.00  0.00    -0.227 A  
HETATM   22 CL   UNL     1      -7.573   8.260  63.761  1.00  0.00    -0.125 Cl 
HETATM   23  C   UNL     1      -9.647   9.841  64.469  1.00  0.00    -0.201 A  
HETATM   24  C   UNL     1      -7.573  10.301  65.530  1.00  0.00    -0.149 A  
HETATM   25  N   UNL     1      -8.093  11.328  66.246  1.00  0.00    -0.146 NA 
HETATM   26  C   UNL     1     -10.191  10.928  65.157  1.00  0.00    -0.360 A  
HETATM   27  C   UNL     1      -8.304   9.537  64.639  1.00  0.00    -0.157 A  
ENDBRANCH  12  21
ENDBRANCH  10  11
ENDBRANCH   7  10
TORSDOF 3
ENDMDL
MODEL       31
REMARK 921   NORMALIZED FREE ENERGY PREDICTED BY IDOCK:   -6.07 KCAL/MOL
REMARK 922        TOTAL FREE ENERGY PREDICTED BY IDOCK:   -7.94 KCAL/MOL
REMARK 923 INTER-LIGAND FREE ENERGY PREDICTED BY IDOCK:   -6.90 KCAL/MOL
REMARK 924 INTRA-LIGAND FREE ENERGY PREDICTED BY IDOCK:   -1.04 KCAL/MOL
REMARK 927      BINDING AFFINITY PREDICTED BY RF-SCORE:    0.00 PKD
ROOT
HETATM    1  C   UNL     1      -9.628   3.693  66.205  1.00  0.00    -0.130 C  
HETATM    2  N   UNL     1      -8.980   4.583  67.167  1.00  0.00    -0.113 NA 
HETATM    3  C   UNL     1      -8.119   5.582  66.493  1.00  0.00    -0.105 C  
HETATM    4  C   UNL     1      -8.888   6.704  65.770  1.00  0.00    -0.077 C  
HETATM    5  N   UNL     1      -9.856   7.333  66.662  1.00  0.00    -0.205 N  
HETATM    6  C   UNL     1     -10.765   6.402  67.333  1.00  0.00    -0.336 C  
HETATM    7  C   UNL     1      -9.671   8.645  67.054  1.00  0.00    -0.201 C  
HETATM    8  O   UNL     1      -8.709   9.322  66.721  1.00  0.00    -0.125 OA 
HETATM    9  C   UNL     1      -9.968   5.275  68.029  1.00  0.00    -0.152 C  
ENDROOT
BRANCH   7  10
HETATM   10  O   UNL     1     -10.691   9.103  67.819  1.00  0.00    -0.245 OA 
BRANCH  10  11
HETATM   11  C   UNL     1     -10.314   9.957  68.897  1.00  0.00    -0.205 C  
HETATM   12  N   UNL     1     -11.290  11.029  69.001  1.00  0.00    -0.251 N  
HETATM   13  C   UNL     1     -12.044  10.956  70.166  1.00  0.00    -0.349 C  
HETATM   14  C   UNL     1     -10.553   9.180  70.170  1.00  0.00    -0.228 A  
HETATM   15  N   UNL     1      -9.926   8.051  70.577  1.00  0.00    -0.190 NA 
HETATM   16  C   UNL     1     -11.575   9.766  70.888  1.00  0.00    -0.361 A  
HETATM   17  O   UNL     1     -12.883  11.734  70.582  1.00  0.00    -0.155 OA 
HETATM   18  C   UNL     1     -10.395   7.563  71.754  1.00  0.00    -0.192 A  
HETATM   19  N   UNL     1     -12.048   9.305  72.062  1.00  0.00    -0.359 NA 
HETATM   20  C   UNL     1     -11.424   8.175  72.476  1.00  0.00    -0.404 A  
BRANCH  12  21
HETATM   21  C   UNL     1     -11.230  12.137  68.150  1.00  0.00    -0.267 A  
HETATM   22 CL   UNL     1     -10.942  15.455  65.173  1.00  0.00    -0.407 Cl 
HETATM   23  C   UNL     1     -10.369  14.302  67.550  1.00  0.00    -0.248 A  
HETATM   24  C   UNL     1     -11.830  13.088  66.126  1.00  0.00    -0.409 A  
HETATM   25  N   UNL     1     -11.954  12.071  67.013  1.00  0.00    -0.606 NA 
HETATM   26  C   UNL     1     -10.439  13.242  68.456  1.00  0.00    -0.259 A  
HETATM   27  C   UNL     1     -11.057  14.213  66.349  1.00  0.00    -0.320 A  
ENDBRANCH  12  21
ENDBRANCH  10  11
ENDBRANCH   7  10
TORSDOF 3
ENDMDL
MODEL       32
REMARK 921   NORMALIZED FREE ENERGY PREDICTED BY IDOCK:   -6.06 KCAL/MOL
REMARK 922        TOTAL FREE ENERGY PREDICTED BY IDOCK:   -7.94 KCAL/MOL
REMARK 923 INTER-LIGAND FREE ENERGY PREDICTED BY IDOCK:   -7.20 KCAL/MOL
REMARK 924 INTRA-LIGAND FREE ENERGY PREDICTED BY IDOCK:   -0.74 KCAL/MOL
REMARK 927      BINDING AFFINITY PREDICTED BY RF-SCORE:    0.00 PKD
ROOT
HETATM    1  C   UNL     1      -8.570   6.542  65.756  1.00  0.00    -0.144 C  
HETATM    2  N   UNL     1      -8.152   7.745  66.476  1.00  0.00    -0.108 NA 
HETATM    3  C   UNL     1      -8.049   8.913  65.573  1.00  0.00    -0.112 C  
HETATM    4  C   UNL     1      -9.403   9.492  65.121  1.00  0.00    -0.252 C  
HETATM    5  N   UNL     1     -10.264   9.764  66.267  1.00  0.00    -0.238 N  
HETATM    6  C   UNL     1     -10.439   8.634  67.182  1.00  0.00    -0.289 C  
HETATM    7  C   UNL     1     -10.585  11.069  66.585  1.00  0.00    -0.262 C  
HETATM    8  O   UNL     1     -10.158  12.040  65.976  1.00  0.00    -0.219 OA 
HETATM    9  C   UNL     1      -9.067   8.059  67.600  1.00  0.00    -0.137 C  
ENDROOT
BRANCH   7  10
HETATM   10  O   UNL     1     -11.449  11.148  67.626  1.00  0.00    -0.428 OA 
BRANCH  10  11
HETATM   11  C   UNL     1     -10.902  11.659  68.841  1.00  0.00    -0.220 C  
HETATM   12  N   UNL     1     -11.358  13.028  69.013  1.00  0.00    -0.275 N  
HETATM   13  C   UNL     1     -12.222  13.174  70.091  1.00  0.00    -0.290 C  
HETATM   14  C   UNL     1     -11.606  10.941  69.968  1.00  0.00    -0.341 A  
HETATM   15  N   UNL     1     -11.557   9.621  70.263  1.00  0.00    -0.233 NA 
HETATM   16  C   UNL     1     -12.384  11.835  70.675  1.00  0.00    -0.328 A  
HETATM   17  O   UNL     1     -12.716  14.191  70.541  1.00  0.00    -0.340 OA 
HETATM   18  C   UNL     1     -12.337   9.270  71.317  1.00  0.00    -0.328 A  
HETATM   19  N   UNL     1     -13.156  11.511  71.730  1.00  0.00    -0.459 NA 
HETATM   20  C   UNL     1     -13.112  10.190  72.031  1.00  0.00    -0.437 A  
BRANCH  12  21
HETATM   21  C   UNL     1     -10.735  14.080  68.334  1.00  0.00    -0.251 A  
HETATM   22 CL   UNL     1      -8.656  17.573  66.482  1.00  0.00    -0.284 Cl 
HETATM   23  C   UNL     1     -10.782  15.934  66.801  1.00  0.00    -0.281 A  
HETATM   24  C   UNL     1      -8.845  15.392  68.063  1.00  0.00    -0.165 A  
HETATM   25  N   UNL     1      -9.439  14.314  68.632  1.00  0.00    -0.200 NA 
HETATM   26  C   UNL     1     -11.431  14.861  67.415  1.00  0.00    -0.354 A  
HETATM   27  C   UNL     1      -9.471  16.222  67.152  1.00  0.00    -0.224 A  
ENDBRANCH  12  21
ENDBRANCH  10  11
ENDBRANCH   7  10
TORSDOF 3
ENDMDL
MODEL       33
REMARK 921   NORMALIZED FREE ENERGY PREDICTED BY IDOCK:   -5.94 KCAL/MOL
REMARK 922        TOTAL FREE ENERGY PREDICTED BY IDOCK:   -7.79 KCAL/MOL
REMARK 923 INTER-LIGAND FREE ENERGY PREDICTED BY IDOCK:   -6.94 KCAL/MOL
REMARK 924 INTRA-LIGAND FREE ENERGY PREDICTED BY IDOCK:   -0.86 KCAL/MOL
REMARK 927      BINDING AFFINITY PREDICTED BY RF-SCORE:    0.00 PKD
ROOT
HETATM    1  C   UNL     1      -7.557  20.045  67.095  1.00  0.00    -0.287 C  
HETATM    2  N   UNL     1      -6.777  18.822  66.913  1.00  0.00    -0.192 NA 
HETATM    3  C   UNL     1      -6.328  18.262  68.208  1.00  0.00    -0.198 C  
HETATM    4  C   UNL     1      -7.441  17.589  69.033  1.00  0.00    -0.179 C  
HETATM    5  N   UNL     1      -8.160  16.602  68.235  1.00  0.00    -0.190 N  
HETATM    6  C   UNL     1      -8.665  17.103  66.954  1.00  0.00    -0.232 C  
HETATM    7  C   UNL     1      -8.055  15.262  68.549  1.00  0.00    -0.143 C  
HETATM    8  O   UNL     1      -7.356  14.831  69.455  1.00  0.00    -0.172 OA 
HETATM    9  C   UNL     1      -7.534  17.793  66.159  1.00  0.00    -0.287 C  
ENDROOT
BRANCH   7  10
HETATM   10  O   UNL     1      -8.838  14.485  67.763  1.00  0.00    -0.170 OA 
BRANCH  10  11
HETATM   11  C   UNL     1      -9.176  13.208  68.302  1.00  0.00    -0.194 C  
HETATM   12  N   UNL     1     -10.621  13.057  68.261  1.00  0.00    -0.241 N  
HETATM   13  C   UNL     1     -11.033  12.076  67.368  1.00  0.00    -0.261 C  
HETATM   14  C   UNL     1      -8.717  12.178  67.297  1.00  0.00    -0.182 A  
HETATM   15  N   UNL     1      -7.446  11.907  66.917  1.00  0.00    -0.118 NA 
HETATM   16  C   UNL     1      -9.812  11.540  66.751  1.00  0.00    -0.203 A  
HETATM   17  O   UNL     1     -12.157  11.660  67.155  1.00  0.00    -0.575 OA 
HETATM   18  C   UNL     1      -7.358  10.950  65.958  1.00  0.00    -0.081 A  
HETATM   19  N   UNL     1      -9.747  10.581  65.807  1.00  0.00    -0.209 NA 
HETATM   20  C   UNL     1      -8.477  10.304  65.421  1.00  0.00    -0.161 A  
BRANCH  12  21
HETATM   21  C   UNL     1     -11.430  13.644  69.239  1.00  0.00    -0.291 A  
HETATM   22 CL   UNL     1     -13.751  15.749  72.423  1.00  0.00    -0.574 Cl 
HETATM   23  C   UNL     1     -12.713  13.534  71.272  1.00  0.00    -0.432 A  
HETATM   24  C   UNL     1     -12.349  15.579  70.120  1.00  0.00    -0.353 A  
HETATM   25  N   UNL     1     -11.654  14.970  69.128  1.00  0.00    -0.293 NA 
HETATM   26  C   UNL     1     -11.955  12.894  70.289  1.00  0.00    -0.359 A  
HETATM   27  C   UNL     1     -12.892  14.908  71.201  1.00  0.00    -0.359 A  
ENDBRANCH  12  21
ENDBRANCH  10  11
ENDBRANCH   7  10
TORSDOF 3
ENDMDL
MODEL       34
REMARK 921   NORMALIZED FREE ENERGY PREDICTED BY IDOCK:   -5.92 KCAL/MOL
REMARK 922        TOTAL FREE ENERGY PREDICTED BY IDOCK:   -7.77 KCAL/MOL
REMARK 923 INTER-LIGAND FREE ENERGY PREDICTED BY IDOCK:   -7.48 KCAL/MOL
REMARK 924 INTRA-LIGAND FREE ENERGY PREDICTED BY IDOCK:   -0.29 KCAL/MOL
REMARK 927      BINDING AFFINITY PREDICTED BY RF-SCORE:    0.00 PKD
ROOT
HETATM    1  C   UNL     1     -10.660  17.892  67.877  1.00  0.00    -0.376 C  
HETATM    2  N   UNL     1      -9.913  16.740  68.381  1.00  0.00    -0.255 NA 
HETATM    3  C   UNL     1     -10.487  16.229  69.647  1.00  0.00    -0.294 C  
HETATM    4  C   UNL     1     -11.815  15.467  69.485  1.00  0.00    -0.372 C  
HETATM    5  N   UNL     1     -11.696  14.417  68.479  1.00  0.00    -0.320 N  
HETATM    6  C   UNL     1     -11.170  14.864  67.188  1.00  0.00    -0.343 C  
HETATM    7  C   UNL     1     -11.770  13.092  68.863  1.00  0.00    -0.326 C  
HETATM    8  O   UNL     1     -11.899  12.729  70.024  1.00  0.00    -0.325 OA 
HETATM    9  C   UNL     1      -9.850  15.645  67.382  1.00  0.00    -0.225 C  
ENDROOT
BRANCH   7  10
HETATM   10  O   UNL     1     -11.716  12.246  67.807  1.00  0.00    -0.333 OA 
BRANCH  10  11
HETATM   11  C   UNL     1     -10.424  11.720  67.507  1.00  0.00    -0.202 C  
HETATM   12  N   UNL     1     -10.426  10.295  67.795  1.00  0.00    -0.208 N  
HETATM   13  C   UNL     1     -10.305   9.516  66.652  1.00  0.00    -0.210 C  
HETATM   14  C   UNL     1     -10.286  11.743  66.002  1.00  0.00    -0.230 A  
HETATM   15  N   UNL     1     -10.256  12.828  65.194  1.00  0.00    -0.292 NA 
HETATM   16  C   UNL     1     -10.236  10.450  65.520  1.00  0.00    -0.246 A  
HETATM   17  O   UNL     1     -10.202   8.307  66.559  1.00  0.00    -0.288 OA 
HETATM   18  C   UNL     1     -10.165  12.520  63.874  1.00  0.00    -0.360 A  
HETATM   19  N   UNL     1     -10.135  10.123  64.217  1.00  0.00    -0.141 NA 
HETATM   20  C   UNL     1     -10.104  11.205  63.401  1.00  0.00    -0.390 A  
BRANCH  12  21
HETATM   21  C   UNL     1     -10.271   9.831  69.105  1.00  0.00    -0.199 A  
HETATM   22 CL   UNL     1      -9.539   8.110  73.162  1.00  0.00    -0.335 Cl 
HETATM   23  C   UNL     1     -11.152   8.904  71.143  1.00  0.00    -0.354 A  
HETATM   24  C   UNL     1      -8.825   9.245  70.817  1.00  0.00    -0.225 A  
HETATM   25  N   UNL     1      -9.011   9.787  69.589  1.00  0.00    -0.200 NA 
HETATM   26  C   UNL     1     -11.363   9.411  69.859  1.00  0.00    -0.121 A  
HETATM   27  C   UNL     1      -9.855   8.794  71.622  1.00  0.00    -0.308 A  
ENDBRANCH  12  21
ENDBRANCH  10  11
ENDBRANCH   7  10
TORSDOF 3
ENDMDL
MODEL       35
REMARK 921   NORMALIZED FREE ENERGY PREDICTED BY IDOCK:   -5.92 KCAL/MOL
REMARK 922        TOTAL FREE ENERGY PREDICTED BY IDOCK:   -7.77 KCAL/MOL
REMARK 923 INTER-LIGAND FREE ENERGY PREDICTED BY IDOCK:   -7.46 KCAL/MOL
REMARK 924 INTRA-LIGAND FREE ENERGY PREDICTED BY IDOCK:   -0.30 KCAL/MOL
REMARK 927      BINDING AFFINITY PREDICTED BY RF-SCORE:    0.00 PKD
ROOT
HETATM    1  C   UNL     1      -8.143   8.722  63.797  1.00  0.00    -0.165 C  
HETATM    2  N   UNL     1      -7.762   8.568  65.200  1.00  0.00    -0.097 NA 
HETATM    3  C   UNL     1      -7.311   9.850  65.787  1.00  0.00    -0.111 C  
HETATM    4  C   UNL     1      -8.442  10.858  66.066  1.00  0.00    -0.167 C  
HETATM    5  N   UNL     1      -9.507  10.245  66.852  1.00  0.00    -0.165 N  
HETATM    6  C   UNL     1     -10.026   8.990  66.304  1.00  0.00    -0.281 C  
HETATM    7  C   UNL     1      -9.733  10.671  68.146  1.00  0.00    -0.156 C  
HETATM    8  O   UNL     1      -9.062  11.528  68.704  1.00  0.00    -0.178 OA 
HETATM    9  C   UNL     1      -8.869   8.008  66.012  1.00  0.00    -0.162 C  
ENDROOT
BRANCH   7  10
HETATM   10  O   UNL     1     -10.799  10.057  68.712  1.00  0.00    -0.214 OA 
BRANCH  10  11
HETATM   11  C   UNL     1     -10.714   9.853  70.121  1.00  0.00    -0.308 C  
HETATM   12  N   UNL     1     -12.016  10.122  70.708  1.00  0.00    -0.322 N  
HETATM   13  C   UNL     1     -12.618   8.982  71.225  1.00  0.00    -0.280 C  
HETATM   14  C   UNL     1     -10.567   8.364  70.336  1.00  0.00    -0.223 A  
HETATM   15  N   UNL     1      -9.536   7.575  69.953  1.00  0.00    -0.161 NA 
HETATM   16  C   UNL     1     -11.692   7.871  70.964  1.00  0.00    -0.277 A  
HETATM   17  O   UNL     1     -13.664   8.883  71.839  1.00  0.00    -0.390 OA 
HETATM   18  C   UNL     1      -9.716   6.262  70.253  1.00  0.00    -0.164 A  
HETATM   19  N   UNL     1     -11.887   6.576  71.280  1.00  0.00    -0.337 NA 
HETATM   20  C   UNL     1     -10.858   5.779  70.900  1.00  0.00    -0.256 A  
BRANCH  12  21
HETATM   21  C   UNL     1     -12.430  11.434  70.960  1.00  0.00    -0.383 A  
HETATM   22 CL   UNL     1     -13.408  15.720  71.754  1.00  0.00    -0.516 Cl 
HETATM   23  C   UNL     1     -13.551  13.079  72.313  1.00  0.00    -0.643 A  
HETATM   24  C   UNL     1     -12.320  13.671  70.370  1.00  0.00    -0.345 A  
HETATM   25  N   UNL     1     -12.018  12.380  70.089  1.00  0.00    -0.339 NA 
HETATM   26  C   UNL     1     -13.207  11.747  72.072  1.00  0.00    -0.460 A  
HETATM   27  C   UNL     1     -13.076  14.064  71.459  1.00  0.00    -0.363 A  
ENDBRANCH  12  21
ENDBRANCH  10  11
ENDBRANCH   7  10
TORSDOF 3
ENDMDL
MODEL       36
REMARK 921   NORMALIZED FREE ENERGY PREDICTED BY IDOCK:   -5.90 KCAL/MOL
REMARK 922        TOTAL FREE ENERGY PREDICTED BY IDOCK:   -7.74 KCAL/MOL
REMARK 923 INTER-LIGAND FREE ENERGY PREDICTED BY IDOCK:   -7.19 KCAL/MOL
REMARK 924 INTRA-LIGAND FREE ENERGY PREDICTED BY IDOCK:   -0.55 KCAL/MOL
REMARK 927      BINDING AFFINITY PREDICTED BY RF-SCORE:    0.00 PKD
ROOT
HETATM    1  C   UNL     1     -10.058  19.951  68.482  1.00  0.00    -0.421 C  
HETATM    2  N   UNL     1      -9.885  19.021  67.367  1.00  0.00    -0.313 NA 
HETATM    3  C   UNL     1      -8.460  18.673  67.164  1.00  0.00    -0.265 C  
HETATM    4  C   UNL     1      -7.878  17.719  68.224  1.00  0.00    -0.279 C  
HETATM    5  N   UNL     1      -8.713  16.532  68.373  1.00  0.00    -0.209 N  
HETATM    6  C   UNL     1     -10.131  16.808  68.616  1.00  0.00    -0.279 C  
HETATM    7  C   UNL     1      -8.224  15.300  67.984  1.00  0.00    -0.141 C  
HETATM    8  O   UNL     1      -7.123  15.137  67.478  1.00  0.00    -0.172 OA 
HETATM    9  C   UNL     1     -10.681  17.785  67.552  1.00  0.00    -0.307 C  
ENDROOT
BRANCH   7  10
HETATM   10  O   UNL     1      -9.089  14.294  68.255  1.00  0.00    -0.177 OA 
BRANCH  10  11
HETATM   11  C   UNL     1      -9.217  13.302  67.237  1.00  0.00    -0.222 C  
HETATM   12  N   UNL     1      -9.938  12.165  67.786  1.00  0.00    -0.193 N  
HETATM   13  C   UNL     1     -11.192  11.998  67.213  1.00  0.00    -0.311 C  
HETATM   14  C   UNL     1     -10.198  13.846  66.224  1.00  0.00    -0.297 A  
HETATM   15  N   UNL     1     -10.048  14.933  65.432  1.00  0.00    -0.364 NA 
HETATM   16  C   UNL     1     -11.349  13.084  66.236  1.00  0.00    -0.317 A  
HETATM   17  O   UNL     1     -12.003  11.109  67.398  1.00  0.00    -0.532 OA 
HETATM   18  C   UNL     1     -11.129  15.192  64.653  1.00  0.00    -0.324 A  
HETATM   19  N   UNL     1     -12.429  13.317  65.465  1.00  0.00    -0.476 NA 
HETATM   20  C   UNL     1     -12.285  14.404  64.668  1.00  0.00    -0.464 A  
BRANCH  12  21
HETATM   21  C   UNL     1      -9.281  11.216  68.575  1.00  0.00    -0.183 A  
HETATM   22 CL   UNL     1      -7.323   8.345  71.382  1.00  0.00    -0.083 Cl 
HETATM   23  C   UNL     1      -7.287  10.096  69.323  1.00  0.00    -0.098 A  
HETATM   24  C   UNL     1      -9.411   9.673  70.298  1.00  0.00    -0.242 A  
HETATM   25  N   UNL     1     -10.040  10.524  69.451  1.00  0.00    -0.225 NA 
HETATM   26  C   UNL     1      -7.907  11.018  68.476  1.00  0.00    -0.129 A  
HETATM   27  C   UNL     1      -8.049   9.430  70.271  1.00  0.00    -0.164 A  
ENDBRANCH  12  21
ENDBRANCH  10  11
ENDBRANCH   7  10
TORSDOF 3
ENDMDL
MODEL       37
REMARK 921   NORMALIZED FREE ENERGY PREDICTED BY IDOCK:   -5.87 KCAL/MOL
REMARK 922        TOTAL FREE ENERGY PREDICTED BY IDOCK:   -7.71 KCAL/MOL
REMARK 923 INTER-LIGAND FREE ENERGY PREDICTED BY IDOCK:   -6.73 KCAL/MOL
REMARK 924 INTRA-LIGAND FREE ENERGY PREDICTED BY IDOCK:   -0.98 KCAL/MOL
REMARK 927      BINDING AFFINITY PREDICTED BY RF-SCORE:    0.00 PKD
ROOT
HETATM    1  C   UNL     1     -12.322  11.472  63.234  1.00  0.00     0.039 C  
HETATM    2  N   UNL     1     -11.236  11.678  64.191  1.00  0.00    -0.357 NA 
HETATM    3  C   UNL     1     -10.421  12.865  63.846  1.00  0.00    -0.304 C  
HETATM    4  C   UNL     1     -11.106  14.214  64.130  1.00  0.00     0.025 C  
HETATM    5  N   UNL     1     -11.598  14.273  65.502  1.00  0.00    -0.331 N  
HETATM    6  C   UNL     1     -12.444  13.144  65.897  1.00  0.00    -0.319 C  
HETATM    7  C   UNL     1     -11.021  15.152  66.397  1.00  0.00    -0.329 C  
HETATM    8  O   UNL     1     -10.079  15.881  66.119  1.00  0.00    -0.275 OA 
HETATM    9  C   UNL     1     -11.742  11.805  65.579  1.00  0.00    -0.034 C  
ENDROOT
BRANCH   7  10
HETATM   10  O   UNL     1     -11.637  15.137  67.604  1.00  0.00    -0.336 OA 
BRANCH  10  11
HETATM   11  C   UNL     1     -10.787  14.899  68.724  1.00  0.00    -0.252 C  
HETATM   12  N   UNL     1     -10.699  16.121  69.507  1.00  0.00    -0.289 N  
HETATM   13  C   UNL     1     -11.303  16.005  70.752  1.00  0.00    -0.398 C  
HETATM   14  C   UNL     1     -11.541  13.977  69.653  1.00  0.00    -0.289 A  
HETATM   15  N   UNL     1     -11.925  12.701  69.414  1.00  0.00    -0.289 NA 
HETATM   16  C   UNL     1     -11.849  14.643  70.821  1.00  0.00    -0.311 A  
HETATM   17  O   UNL     1     -11.338  16.813  71.662  1.00  0.00    -0.086 OA 
HETATM   18  C   UNL     1     -12.630  12.145  70.433  1.00  0.00    -0.032 A  
HETATM   19  N   UNL     1     -12.537  14.108  71.849  1.00  0.00    -0.313 NA 
HETATM   20  C   UNL     1     -12.924  12.829  71.617  1.00  0.00    -0.303 A  
BRANCH  12  21
HETATM   21  C   UNL     1      -9.841  17.157  69.123  1.00  0.00    -0.187 A  
HETATM   22 CL   UNL     1      -7.303  20.506  67.608  1.00  0.00    -0.344 Cl 
HETATM   23  C   UNL     1      -7.660  18.001  68.558  1.00  0.00    -0.296 A  
HETATM   24  C   UNL     1      -9.613  19.341  68.387  1.00  0.00    -0.385 A  
HETATM   25  N   UNL     1     -10.410  18.352  68.859  1.00  0.00    -0.255 NA 
HETATM   26  C   UNL     1      -8.470  16.951  68.996  1.00  0.00    -0.142 A  
HETATM   27  C   UNL     1      -8.246  19.212  68.221  1.00  0.00    -0.334 A  
ENDBRANCH  12  21
ENDBRANCH  10  11
ENDBRANCH   7  10
TORSDOF 3
ENDMDL
MODEL       38
REMARK 921   NORMALIZED FREE ENERGY PREDICTED BY IDOCK:   -5.87 KCAL/MOL
REMARK 922        TOTAL FREE ENERGY PREDICTED BY IDOCK:   -7.70 KCAL/MOL
REMARK 923 INTER-LIGAND FREE ENERGY PREDICTED BY IDOCK:   -6.79 KCAL/MOL
REMARK 924 INTRA-LIGAND FREE ENERGY PREDICTED BY IDOCK:   -0.91 KCAL/MOL
REMARK 927      BINDING AFFINITY PREDICTED BY RF-SCORE:    0.00 PKD
ROOT
HETATM    1  C   UNL     1     -11.977  12.131  63.425  1.00  0.00    -0.481 C  
HETATM    2  N   UNL     1     -12.555  13.093  64.361  1.00  0.00    -0.653 NA 
HETATM    3  C   UNL     1     -12.467  12.615  65.759  1.00  0.00    -0.086 C  
HETATM    4  C   UNL     1     -11.052  12.673  66.366  1.00  0.00    -0.287 C  
HETATM    5  N   UNL     1     -10.469  14.001  66.207  1.00  0.00    -0.282 N  
HETATM    6  C   UNL     1     -10.490  14.518  64.836  1.00  0.00    -0.409 C  
HETATM    7  C   UNL     1     -10.240  14.784  67.321  1.00  0.00    -0.241 C  
HETATM    8  O   UNL     1     -10.530  14.445  68.459  1.00  0.00    -0.239 OA 
HETATM    9  C   UNL     1     -11.915  14.426  64.246  1.00  0.00    -0.410 C  
ENDROOT
BRANCH   7  10
HETATM   10  O   UNL     1      -9.629  15.953  67.012  1.00  0.00    -0.217 OA 
BRANCH  10  11
HETATM   11  C   UNL     1      -9.118  16.691  68.122  1.00  0.00    -0.213 C  
HETATM   12  N   UNL     1      -7.667  16.616  68.098  1.00  0.00    -0.168 N  
HETATM   13  C   UNL     1      -7.071  17.842  67.829  1.00  0.00    -0.204 C  
HETATM   14  C   UNL     1      -9.370  18.151  67.824  1.00  0.00    -0.267 A  
HETATM   15  N   UNL     1     -10.566  18.772  67.700  1.00  0.00    -0.428 NA 
HETATM   16  C   UNL     1      -8.167  18.802  67.639  1.00  0.00    -0.263 A  
HETATM   17  O   UNL     1      -5.888  18.129  67.812  1.00  0.00    -0.152 OA 
HETATM   18  C   UNL     1     -10.464  20.090  67.386  1.00  0.00    -0.350 A  
HETATM   19  N   UNL     1      -8.043  20.109  67.338  1.00  0.00    -0.324 NA 
HETATM   20  C   UNL     1      -9.237  20.738  67.213  1.00  0.00    -0.230 A  
BRANCH  12  21
HETATM   21  C   UNL     1      -7.000  15.489  68.588  1.00  0.00    -0.116 A  
HETATM   22 CL   UNL     1      -5.134  11.691  70.020  1.00  0.00    -0.069 Cl 
HETATM   23  C   UNL     1      -6.038  14.212  70.387  1.00  0.00    -0.169 A  
HETATM   24  C   UNL     1      -6.180  13.363  68.174  1.00  0.00    -0.111 A  
HETATM   25  N   UNL     1      -6.733  14.507  67.702  1.00  0.00    -0.180 NA 
HETATM   26  C   UNL     1      -6.655  15.380  69.933  1.00  0.00    -0.144 A  
HETATM   27  C   UNL     1      -5.820  13.172  69.496  1.00  0.00    -0.102 A  
ENDBRANCH  12  21
ENDBRANCH  10  11
ENDBRANCH   7  10
TORSDOF 3
ENDMDL
MODEL       39
REMARK 921   NORMALIZED FREE ENERGY PREDICTED BY IDOCK:   -5.83 KCAL/MOL
REMARK 922        TOTAL FREE ENERGY PREDICTED BY IDOCK:   -7.66 KCAL/MOL
REMARK 923 INTER-LIGAND FREE ENERGY PREDICTED BY IDOCK:   -6.63 KCAL/MOL
REMARK 924 INTRA-LIGAND FREE ENERGY PREDICTED BY IDOCK:   -1.04 KCAL/MOL
REMARK 927      BINDING AFFINITY PREDICTED BY RF-SCORE:    0.00 PKD
ROOT
HETATM    1  C   UNL     1      -9.934   6.370  71.447  1.00  0.00    -0.184 C  
HETATM    2  N   UNL     1     -11.203   6.986  71.065  1.00  0.00    -0.263 NA 
HETATM    3  C   UNL     1     -11.344   8.345  71.637  1.00  0.00    -0.286 C  
HETATM    4  C   UNL     1     -10.467   9.416  70.964  1.00  0.00    -0.322 C  
HETATM    5  N   UNL     1     -10.657   9.413  69.517  1.00  0.00    -0.217 N  
HETATM    6  C   UNL     1     -10.492   8.104  68.881  1.00  0.00    -0.185 C  
HETATM    7  C   UNL     1     -11.257  10.496  68.905  1.00  0.00    -0.266 C  
HETATM    8  O   UNL     1     -11.682  11.468  69.512  1.00  0.00    -0.287 OA 
HETATM    9  C   UNL     1     -11.365   7.045  69.592  1.00  0.00    -0.138 C  
ENDROOT
BRANCH   7  10
HETATM   10  O   UNL     1     -11.291  10.371  67.556  1.00  0.00    -0.374 OA 
BRANCH  10  11
HETATM   11  C   UNL     1     -10.346  11.166  66.842  1.00  0.00    -0.231 C  
HETATM   12  N   UNL     1      -9.756  10.351  65.793  1.00  0.00    -0.212 N  
HETATM   13  C   UNL     1     -10.113  10.775  64.519  1.00  0.00    -0.350 C  
HETATM   14  C   UNL     1     -11.141  12.180  66.052  1.00  0.00    -0.313 A  
HETATM   15  N   UNL     1     -11.918  13.176  66.537  1.00  0.00    -0.402 NA 
HETATM   16  C   UNL     1     -11.007  11.926  64.702  1.00  0.00    -0.316 A  
HETATM   17  O   UNL     1      -9.733  10.357  63.441  1.00  0.00    -0.309 OA 
HETATM   18  C   UNL     1     -12.541  13.898  65.571  1.00  0.00    -0.526 A  
HETATM   19  N   UNL     1     -11.607  12.636  63.727  1.00  0.00    -0.437 NA 
HETATM   20  C   UNL     1     -12.387  13.637  64.205  1.00  0.00    -0.335 A  
BRANCH  12  21
HETATM   21  C   UNL     1      -8.726   9.450  66.081  1.00  0.00    -0.147 A  
HETATM   22 CL   UNL     1      -5.666   6.394  67.201  1.00  0.00    -0.012 Cl 
HETATM   23  C   UNL     1      -6.537   8.939  66.941  1.00  0.00    -0.061 A  
HETATM   24  C   UNL     1      -8.027   7.245  66.200  1.00  0.00    -0.112 A  
HETATM   25  N   UNL     1      -8.971   8.146  65.834  1.00  0.00    -0.170 NA 
HETATM   26  C   UNL     1      -7.517   9.882  66.620  1.00  0.00    -0.099 A  
HETATM   27  C   UNL     1      -6.807   7.592  66.753  1.00  0.00    -0.070 A  
ENDBRANCH  12  21
ENDBRANCH  10  11
ENDBRANCH   7  10
TORSDOF 3
ENDMDL
MODEL       40
REMARK 921   NORMALIZED FREE ENERGY PREDICTED BY IDOCK:   -5.83 KCAL/MOL
REMARK 922        TOTAL FREE ENERGY PREDICTED BY IDOCK:   -7.66 KCAL/MOL
REMARK 923 INTER-LIGAND FREE ENERGY PREDICTED BY IDOCK:   -6.98 KCAL/MOL
REMARK 924 INTRA-LIGAND FREE ENERGY PREDICTED BY IDOCK:   -0.68 KCAL/MOL
REMARK 927      BINDING AFFINITY PREDICTED BY RF-SCORE:    0.00 PKD
ROOT
HETATM    1  C   UNL     1     -13.850  15.217  70.970  1.00  0.00    -0.335 C  
HETATM    2  N   UNL     1     -12.599  14.653  71.475  1.00  0.00    -0.324 NA 
HETATM    3  C   UNL     1     -12.826  13.380  72.196  1.00  0.00    -0.211 C  
HETATM    4  C   UNL     1     -13.155  12.181  71.287  1.00  0.00    -0.116 C  
HETATM    5  N   UNL     1     -12.160  12.038  70.230  1.00  0.00    -0.340 N  
HETATM    6  C   UNL     1     -11.915  13.254  69.451  1.00  0.00    -0.301 C  
HETATM    7  C   UNL     1     -11.323  10.940  70.224  1.00  0.00    -0.256 C  
HETATM    8  O   UNL     1     -11.337  10.073  71.087  1.00  0.00    -0.360 OA 
HETATM    9  C   UNL     1     -11.611  14.445  70.389  1.00  0.00    -0.226 C  
ENDROOT
BRANCH   7  10
HETATM   10  O   UNL     1     -10.510  10.917  69.141  1.00  0.00    -0.212 OA 
BRANCH  10  11
HETATM   11  C   UNL     1     -11.031  10.244  67.996  1.00  0.00    -0.289 C  
HETATM   12  N   UNL     1     -10.375  10.772  66.811  1.00  0.00    -0.234 N  
HETATM   13  C   UNL     1      -9.554   9.838  66.191  1.00  0.00    -0.227 C  
HETATM   14  C   UNL     1     -10.507   8.828  68.049  1.00  0.00    -0.204 A  
HETATM   15  N   UNL     1     -10.777   7.884  68.981  1.00  0.00    -0.153 NA 
HETATM   16  C   UNL     1      -9.635   8.614  67.001  1.00  0.00    -0.182 A  
HETATM   17  O   UNL     1      -8.931   9.940  65.151  1.00  0.00    -0.169 OA 
HETATM   18  C   UNL     1     -10.117   6.714  68.778  1.00  0.00    -0.158 A  
HETATM   19  N   UNL     1      -8.978   7.460  66.775  1.00  0.00    -0.134 NA 
HETATM   20  C   UNL     1      -9.245   6.509  67.703  1.00  0.00    -0.113 A  
BRANCH  12  21
HETATM   21  C   UNL     1     -10.789  11.980  66.243  1.00  0.00    -0.279 A  
HETATM   22 CL   UNL     1     -12.215  15.657  64.143  1.00  0.00    -0.165 Cl 
HETATM   23  C   UNL     1     -10.356  14.222  65.482  1.00  0.00    -0.374 A  
HETATM   24  C   UNL     1     -12.462  13.170  65.169  1.00  0.00    -0.483 A  
HETATM   25  N   UNL     1     -12.068  12.045  65.815  1.00  0.00    -0.489 NA 
HETATM   26  C   UNL     1      -9.912  13.053  66.105  1.00  0.00    -0.278 A  
HETATM   27  C   UNL     1     -11.648  14.272  64.980  1.00  0.00    -0.367 A  
ENDBRANCH  12  21
ENDBRANCH  10  11
ENDBRANCH   7  10
TORSDOF 3
ENDMDL
MODEL       41
REMARK 921   NORMALIZED FREE ENERGY PREDICTED BY IDOCK:   -5.78 KCAL/MOL
REMARK 922        TOTAL FREE ENERGY PREDICTED BY IDOCK:   -7.61 KCAL/MOL
REMARK 923 INTER-LIGAND FREE ENERGY PREDICTED BY IDOCK:   -6.56 KCAL/MOL
REMARK 924 INTRA-LIGAND FREE ENERGY PREDICTED BY IDOCK:   -1.05 KCAL/MOL
REMARK 927      BINDING AFFINITY PREDICTED BY RF-SCORE:    0.00 PKD
ROOT
HETATM    1  C   UNL     1      -7.968   9.437  63.409  1.00  0.00    -0.143 C  
HETATM    2  N   UNL     1      -7.508   8.609  64.523  1.00  0.00    -0.102 NA 
HETATM    3  C   UNL     1      -6.556   9.339  65.390  1.00  0.00    -0.069 C  
HETATM    4  C   UNL     1      -7.200  10.416  66.282  1.00  0.00    -0.127 C  
HETATM    5  N   UNL     1      -8.316   9.864  67.044  1.00  0.00    -0.120 N  
HETATM    6  C   UNL     1      -9.317   9.160  66.239  1.00  0.00    -0.216 C  
HETATM    7  C   UNL     1      -8.219   9.756  68.417  1.00  0.00    -0.105 C  
HETATM    8  O   UNL     1      -7.221  10.068  69.052  1.00  0.00    -0.068 OA 
HETATM    9  C   UNL     1      -8.640   8.104  65.337  1.00  0.00    -0.129 C  
ENDROOT
BRANCH   7  10
HETATM   10  O   UNL     1      -9.362   9.296  68.980  1.00  0.00    -0.148 OA 
BRANCH  10  11
HETATM   11  C   UNL     1      -9.871  10.076  70.061  1.00  0.00    -0.197 C  
HETATM   12  N   UNL     1     -11.247  10.436  69.763  1.00  0.00    -0.272 N  
HETATM   13  C   UNL     1     -12.158   9.826  70.617  1.00  0.00    -0.230 C  
HETATM   14  C   UNL     1     -10.030   9.138  71.235  1.00  0.00    -0.303 A  
HETATM   15  N   UNL     1      -9.054   8.479  71.902  1.00  0.00    -0.223 NA 
HETATM   16  C   UNL     1     -11.370   8.990  71.533  1.00  0.00    -0.346 A  
HETATM   17  O   UNL     1     -13.364   9.974  70.678  1.00  0.00    -0.294 OA 
HETATM   18  C   UNL     1      -9.520   7.672  72.889  1.00  0.00    -0.206 A  
HETATM   19  N   UNL     1     -11.853   8.204  72.515  1.00  0.00    -0.394 NA 
HETATM   20  C   UNL     1     -10.880   7.542  73.188  1.00  0.00    -0.395 A  
BRANCH  12  21
HETATM   21  C   UNL     1     -11.539  11.501  68.906  1.00  0.00    -0.320 A  
HETATM   22 CL   UNL     1     -12.188  14.808  65.973  1.00  0.00    -0.131 Cl 
HETATM   23  C   UNL     1     -11.894  13.843  68.481  1.00  0.00    -0.401 A  
HETATM   24  C   UNL     1     -11.858  12.237  66.732  1.00  0.00    -0.277 A  
HETATM   25  N   UNL     1     -11.677  11.207  67.595  1.00  0.00    -0.598 NA 
HETATM   26  C   UNL     1     -11.655  12.804  69.383  1.00  0.00    -0.361 A  
HETATM   27  C   UNL     1     -11.970  13.558  67.126  1.00  0.00    -0.381 A  
ENDBRANCH  12  21
ENDBRANCH  10  11
ENDBRANCH   7  10
TORSDOF 3
ENDMDL
MODEL       42
REMARK 921   NORMALIZED FREE ENERGY PREDICTED BY IDOCK:   -5.77 KCAL/MOL
REMARK 922        TOTAL FREE ENERGY PREDICTED BY IDOCK:   -7.58 KCAL/MOL
REMARK 923 INTER-LIGAND FREE ENERGY PREDICTED BY IDOCK:   -6.98 KCAL/MOL
REMARK 924 INTRA-LIGAND FREE ENERGY PREDICTED BY IDOCK:   -0.61 KCAL/MOL
REMARK 927      BINDING AFFINITY PREDICTED BY RF-SCORE:    0.00 PKD
ROOT
HETATM    1  C   UNL     1     -13.700   8.744  71.829  1.00  0.00    -0.419 C  
HETATM    2  N   UNL     1     -12.637   9.711  72.098  1.00  0.00    -0.342 NA 
HETATM    3  C   UNL     1     -11.296   9.091  71.994  1.00  0.00    -0.324 C  
HETATM    4  C   UNL     1     -10.842   8.791  70.554  1.00  0.00    -0.233 C  
HETATM    5  N   UNL     1     -10.960   9.975  69.710  1.00  0.00    -0.260 N  
HETATM    6  C   UNL     1     -12.277  10.616  69.738  1.00  0.00    -0.247 C  
HETATM    7  C   UNL     1      -9.821  10.580  69.218  1.00  0.00    -0.205 C  
HETATM    8  O   UNL     1      -8.687  10.200  69.474  1.00  0.00    -0.174 OA 
HETATM    9  C   UNL     1     -12.718  10.884  71.195  1.00  0.00    -0.429 C  
ENDROOT
BRANCH   7  10
HETATM   10  O   UNL     1     -10.103  11.619  68.395  1.00  0.00    -0.195 OA 
BRANCH  10  11
HETATM   11  C   UNL     1      -9.314  11.695  67.209  1.00  0.00    -0.169 C  
HETATM   12  N   UNL     1      -9.901  10.821  66.206  1.00  0.00    -0.207 N  
HETATM   13  C   UNL     1     -10.432  11.521  65.130  1.00  0.00    -0.286 C  
HETATM   14  C   UNL     1      -9.550  13.066  66.619  1.00  0.00    -0.259 A  
HETATM   15  N   UNL     1      -9.222  14.263  67.158  1.00  0.00    -0.213 NA 
HETATM   16  C   UNL     1     -10.218  12.946  65.417  1.00  0.00    -0.287 A  
HETATM   17  O   UNL     1     -10.923  11.087  64.104  1.00  0.00    -0.314 OA 
HETATM   18  C   UNL     1      -9.605  15.324  66.402  1.00  0.00    -0.292 A  
HETATM   19  N   UNL     1     -10.598  13.983  64.646  1.00  0.00    -0.422 NA 
HETATM   20  C   UNL     1     -10.271  15.186  65.180  1.00  0.00    -0.351 A  
BRANCH  12  21
HETATM   21  C   UNL     1      -9.664   9.443  66.231  1.00  0.00    -0.264 A  
HETATM   22 CL   UNL     1      -8.965   5.052  66.659  1.00  0.00    -0.114 Cl 
HETATM   23  C   UNL     1      -8.269   7.526  65.821  1.00  0.00    -0.137 A  
HETATM   24  C   UNL     1     -10.369   7.346  66.915  1.00  0.00    -0.296 A  
HETATM   25  N   UNL     1     -10.622   8.672  66.788  1.00  0.00    -0.227 NA 
HETATM   26  C   UNL     1      -8.485   8.903  65.726  1.00  0.00    -0.157 A  
HETATM   27  C   UNL     1      -9.218   6.735  66.452  1.00  0.00    -0.153 A  
ENDBRANCH  12  21
ENDBRANCH  10  11
ENDBRANCH   7  10
TORSDOF 3
ENDMDL
MODEL       43
REMARK 921   NORMALIZED FREE ENERGY PREDICTED BY IDOCK:   -5.73 KCAL/MOL
REMARK 922        TOTAL FREE ENERGY PREDICTED BY IDOCK:   -7.55 KCAL/MOL
REMARK 923 INTER-LIGAND FREE ENERGY PREDICTED BY IDOCK:   -7.19 KCAL/MOL
REMARK 924 INTRA-LIGAND FREE ENERGY PREDICTED BY IDOCK:   -0.35 KCAL/MOL
REMARK 927      BINDING AFFINITY PREDICTED BY RF-SCORE:    0.00 PKD
ROOT
HETATM    1  C   UNL     1      -6.794  18.425  65.687  1.00  0.00    -0.243 C  
HETATM    2  N   UNL     1      -7.117  17.784  66.960  1.00  0.00    -0.174 NA 
HETATM    3  C   UNL     1      -8.228  18.475  67.654  1.00  0.00    -0.255 C  
HETATM    4  C   UNL     1      -9.616  18.239  67.030  1.00  0.00    -0.291 C  
HETATM    5  N   UNL     1      -9.880  16.814  66.866  1.00  0.00    -0.257 N  
HETATM    6  C   UNL     1      -8.835  16.076  66.153  1.00  0.00    -0.331 C  
HETATM    7  C   UNL     1     -10.869  16.212  67.619  1.00  0.00    -0.297 C  
HETATM    8  O   UNL     1     -11.534  16.801  68.459  1.00  0.00    -0.198 OA 
HETATM    9  C   UNL     1      -7.452  16.350  66.785  1.00  0.00    -0.243 C  
ENDROOT
BRANCH   7  10
HETATM   10  O   UNL     1     -11.039  14.907  67.298  1.00  0.00    -0.317 OA 
BRANCH  10  11
HETATM   11  C   UNL     1     -10.446  13.971  68.196  1.00  0.00    -0.243 C  
HETATM   12  N   UNL     1     -11.478  13.469  69.088  1.00  0.00    -0.278 N  
HETATM   13  C   UNL     1     -11.756  12.123  68.883  1.00  0.00    -0.327 C  
HETATM   14  C   UNL     1     -10.102  12.746  67.381  1.00  0.00    -0.219 A  
HETATM   15  N   UNL     1      -9.206  12.653  66.371  1.00  0.00    -0.202 NA 
HETATM   16  C   UNL     1     -10.887  11.684  67.783  1.00  0.00    -0.217 A  
HETATM   17  O   UNL     1     -12.506  11.395  69.506  1.00  0.00    -0.197 OA 
HETATM   18  C   UNL     1      -9.152  11.421  65.803  1.00  0.00    -0.184 A  
HETATM   19  N   UNL     1     -10.842  10.452  67.241  1.00  0.00    -0.279 NA 
HETATM   20  C   UNL     1      -9.946  10.351  66.229  1.00  0.00    -0.226 A  
BRANCH  12  21
HETATM   21  C   UNL     1     -11.891  14.215  70.197  1.00  0.00    -0.313 A  
HETATM   22 CL   UNL     1     -12.978  16.412  73.931  1.00  0.00    -0.444 Cl 
HETATM   23  C   UNL     1     -13.590  14.995  71.712  1.00  0.00    -0.524 A  
HETATM   24  C   UNL     1     -11.289  15.488  72.036  1.00  0.00    -0.358 A  
HETATM   25  N   UNL     1     -10.925  14.844  70.900  1.00  0.00    -0.116 NA 
HETATM   26  C   UNL     1     -13.231  14.281  70.566  1.00  0.00    -0.061 A  
HETATM   27  C   UNL     1     -12.596  15.588  72.477  1.00  0.00    -0.403 A  
ENDBRANCH  12  21
ENDBRANCH  10  11
ENDBRANCH   7  10
TORSDOF 3
ENDMDL
MODEL       44
REMARK 921   NORMALIZED FREE ENERGY PREDICTED BY IDOCK:   -5.73 KCAL/MOL
REMARK 922        TOTAL FREE ENERGY PREDICTED BY IDOCK:   -7.54 KCAL/MOL
REMARK 923 INTER-LIGAND FREE ENERGY PREDICTED BY IDOCK:   -6.56 KCAL/MOL
REMARK 924 INTRA-LIGAND FREE ENERGY PREDICTED BY IDOCK:   -0.98 KCAL/MOL
REMARK 927      BINDING AFFINITY PREDICTED BY RF-SCORE:    0.00 PKD
ROOT
HETATM    1  C   UNL     1     -12.277  15.143  64.217  1.00  0.00    -0.240 C  
HETATM    2  N   UNL     1     -11.032  14.749  64.877  1.00  0.00    -0.404 NA 
HETATM    3  C   UNL     1     -11.140  14.850  66.350  1.00  0.00    -0.342 C  
HETATM    4  C   UNL     1     -11.993  13.748  67.005  1.00  0.00    -0.413 C  
HETATM    5  N   UNL     1     -11.551  12.424  66.581  1.00  0.00    -0.376 N  
HETATM    6  C   UNL     1     -11.460  12.245  65.130  1.00  0.00    -0.341 C  
HETATM    7  C   UNL     1     -10.971  11.571  67.499  1.00  0.00    -0.255 C  
HETATM    8  O   UNL     1     -10.766  11.871  68.667  1.00  0.00    -0.220 OA 
HETATM    9  C   UNL     1     -10.619  13.377  64.498  1.00  0.00    -0.425 C  
ENDROOT
BRANCH   7  10
HETATM   10  O   UNL     1     -10.685  10.359  66.968  1.00  0.00    -0.261 OA 
BRANCH  10  11
HETATM   11  C   UNL     1      -9.361   9.881  67.203  1.00  0.00    -0.146 C  
HETATM   12  N   UNL     1      -9.443   8.530  67.732  1.00  0.00    -0.143 N  
HETATM   13  C   UNL     1      -8.942   7.579  66.852  1.00  0.00    -0.135 C  
HETATM   14  C   UNL     1      -8.733   9.658  65.847  1.00  0.00    -0.144 A  
HETATM   15  N   UNL     1      -8.450  10.590  64.907  1.00  0.00    -0.176 NA 
HETATM   16  C   UNL     1      -8.513   8.310  65.653  1.00  0.00    -0.158 A  
HETATM   17  O   UNL     1      -8.802   6.381  67.022  1.00  0.00    -0.113 OA 
HETATM   18  C   UNL     1      -7.925  10.070  63.767  1.00  0.00    -0.153 A  
HETATM   19  N   UNL     1      -7.984   7.774  64.536  1.00  0.00    -0.140 NA 
HETATM   20  C   UNL     1      -7.696   8.702  63.590  1.00  0.00    -0.136 A  
BRANCH  12  21
HETATM   21  C   UNL     1      -9.724   8.307  69.083  1.00  0.00    -0.171 A  
HETATM   22 CL   UNL     1     -10.961   7.664  73.328  1.00  0.00    -0.421 Cl 
HETATM   23  C   UNL     1      -9.408   8.786  71.420  1.00  0.00    -0.328 A  
HETATM   24  C   UNL     1     -11.048   7.245  70.660  1.00  0.00    -0.264 A  
HETATM   25  N   UNL     1     -10.687   7.403  69.363  1.00  0.00    -0.231 NA 
HETATM   26  C   UNL     1      -9.056   9.004  70.086  1.00  0.00    -0.206 A  
HETATM   27  C   UNL     1     -10.443   7.909  71.712  1.00  0.00    -0.221 A  
ENDBRANCH  12  21
ENDBRANCH  10  11
ENDBRANCH   7  10
TORSDOF 3
ENDMDL
MODEL       45
REMARK 921   NORMALIZED FREE ENERGY PREDICTED BY IDOCK:   -5.72 KCAL/MOL
REMARK 922        TOTAL FREE ENERGY PREDICTED BY IDOCK:   -7.53 KCAL/MOL
REMARK 923 INTER-LIGAND FREE ENERGY PREDICTED BY IDOCK:   -6.53 KCAL/MOL
REMARK 924 INTRA-LIGAND FREE ENERGY PREDICTED BY IDOCK:   -1.00 KCAL/MOL
REMARK 927      BINDING AFFINITY PREDICTED BY RF-SCORE:    0.00 PKD
ROOT
HETATM    1  C   UNL     1      -8.627  16.994  67.201  1.00  0.00    -0.202 C  
HETATM    2  N   UNL     1      -9.987  16.655  67.617  1.00  0.00    -0.257 NA 
HETATM    3  C   UNL     1     -10.746  16.005  66.524  1.00  0.00    -0.238 C  
HETATM    4  C   UNL     1     -10.329  14.552  66.233  1.00  0.00    -0.294 C  
HETATM    5  N   UNL     1     -10.339  13.751  67.453  1.00  0.00    -0.251 N  
HETATM    6  C   UNL     1      -9.573  14.320  68.564  1.00  0.00    -0.220 C  
HETATM    7  C   UNL     1     -11.265  12.737  67.597  1.00  0.00    -0.280 C  
HETATM    8  O   UNL     1     -12.123  12.479  66.764  1.00  0.00    -0.546 OA 
HETATM    9  C   UNL     1      -9.995  15.785  68.818  1.00  0.00    -0.214 C  
ENDROOT
BRANCH   7  10
HETATM   10  O   UNL     1     -11.096  12.044  68.748  1.00  0.00    -0.220 OA 
BRANCH  10  11
HETATM   11  C   UNL     1     -11.344  10.641  68.662  1.00  0.00    -0.281 C  
HETATM   12  N   UNL     1     -10.069   9.950  68.572  1.00  0.00    -0.162 N  
HETATM   13  C   UNL     1      -9.794   9.184  69.698  1.00  0.00    -0.180 C  
HETATM   14  C   UNL     1     -11.850  10.207  70.018  1.00  0.00    -0.179 A  
HETATM   15  N   UNL     1     -13.000  10.580  70.627  1.00  0.00    -0.344 NA 
HETATM   16  C   UNL     1     -10.926   9.373  70.614  1.00  0.00    -0.290 A  
HETATM   17  O   UNL     1      -8.854   8.436  69.902  1.00  0.00    -0.134 OA 
HETATM   18  C   UNL     1     -13.155  10.051  71.868  1.00  0.00    -0.460 A  
HETATM   19  N   UNL     1     -11.065   8.828  71.838  1.00  0.00    -0.342 NA 
HETATM   20  C   UNL     1     -12.215   9.197  72.454  1.00  0.00    -0.193 A  
BRANCH  12  21
HETATM   21  C   UNL     1      -9.385   9.866  67.356  1.00  0.00    -0.137 A  
HETATM   22 CL   UNL     1      -7.207   9.950  63.456  1.00  0.00    -0.123 Cl 
HETATM   23  C   UNL     1      -9.194   9.103  65.081  1.00  0.00    -0.218 A  
HETATM   24  C   UNL     1      -7.609  10.581  66.052  1.00  0.00    -0.140 A  
HETATM   25  N   UNL     1      -8.235  10.565  67.254  1.00  0.00    -0.118 NA 
HETATM   26  C   UNL     1      -9.885   9.115  66.295  1.00  0.00    -0.359 A  
HETATM   27  C   UNL     1      -8.048   9.873  64.948  1.00  0.00    -0.145 A  
ENDBRANCH  12  21
ENDBRANCH  10  11
ENDBRANCH   7  10
TORSDOF 3
ENDMDL
MODEL       46
REMARK 921   NORMALIZED FREE ENERGY PREDICTED BY IDOCK:   -5.71 KCAL/MOL
REMARK 922        TOTAL FREE ENERGY PREDICTED BY IDOCK:   -7.52 KCAL/MOL
REMARK 923 INTER-LIGAND FREE ENERGY PREDICTED BY IDOCK:   -6.80 KCAL/MOL
REMARK 924 INTRA-LIGAND FREE ENERGY PREDICTED BY IDOCK:   -0.71 KCAL/MOL
REMARK 927      BINDING AFFINITY PREDICTED BY RF-SCORE:    0.00 PKD
ROOT
HETATM    1  C   UNL     1      -5.530   6.665  68.536  1.00  0.00    -0.016 C  
HETATM    2  N   UNL     1      -5.705   7.671  67.490  1.00  0.00    -0.035 NA 
HETATM    3  C   UNL     1      -6.650   7.213  66.445  1.00  0.00    -0.052 C  
HETATM    4  C   UNL     1      -8.128   7.211  66.877  1.00  0.00    -0.116 C  
HETATM    5  N   UNL     1      -8.513   8.505  67.429  1.00  0.00    -0.126 N  
HETATM    6  C   UNL     1      -7.640   9.000  68.497  1.00  0.00    -0.093 C  
HETATM    7  C   UNL     1      -9.420   9.295  66.750  1.00  0.00    -0.175 C  
HETATM    8  O   UNL     1      -9.911   8.989  65.672  1.00  0.00    -0.227 OA 
HETATM    9  C   UNL     1      -6.162   8.968  68.044  1.00  0.00    -0.051 C  
ENDROOT
BRANCH   7  10
HETATM   10  O   UNL     1      -9.728  10.426  67.428  1.00  0.00    -0.159 OA 
BRANCH  10  11
HETATM   11  C   UNL     1     -11.117  10.635  67.677  1.00  0.00    -0.319 C  
HETATM   12  N   UNL     1     -11.272  11.149  69.028  1.00  0.00    -0.231 N  
HETATM   13  C   UNL     1     -11.726  12.462  69.053  1.00  0.00    -0.323 C  
HETATM   14  C   UNL     1     -11.536  11.816  66.834  1.00  0.00    -0.293 A  
HETATM   15  N   UNL     1     -11.557  11.898  65.483  1.00  0.00    -0.281 NA 
HETATM   16  C   UNL     1     -11.870  12.877  67.651  1.00  0.00    -0.346 A  
HETATM   17  O   UNL     1     -12.024  13.148  70.013  1.00  0.00    -0.328 OA 
HETATM   18  C   UNL     1     -11.944  13.114  65.017  1.00  0.00    -0.383 A  
HETATM   19  N   UNL     1     -12.267  14.087  67.211  1.00  0.00    -0.365 NA 
HETATM   20  C   UNL     1     -12.291  14.175  65.859  1.00  0.00    -0.463 A  
BRANCH  12  21
HETATM   21  C   UNL     1     -11.242  10.288  70.129  1.00  0.00    -0.318 A  
HETATM   22 CL   UNL     1     -10.969   7.306  73.444  1.00  0.00    -0.368 Cl 
HETATM   23  C   UNL     1     -12.336   9.002  71.844  1.00  0.00    -0.455 A  
HETATM   24  C   UNL     1      -9.987   8.914  71.508  1.00  0.00    -0.320 A  
HETATM   25  N   UNL     1     -10.031   9.829  70.509  1.00  0.00    -0.248 NA 
HETATM   26  C   UNL     1     -12.411   9.907  70.782  1.00  0.00    -0.344 A  
HETATM   27  C   UNL     1     -11.103   8.474  72.197  1.00  0.00    -0.366 A  
ENDBRANCH  12  21
ENDBRANCH  10  11
ENDBRANCH   7  10
TORSDOF 3
ENDMDL
MODEL       47
REMARK 921   NORMALIZED FREE ENERGY PREDICTED BY IDOCK:   -5.68 KCAL/MOL
REMARK 922        TOTAL FREE ENERGY PREDICTED BY IDOCK:   -7.49 KCAL/MOL
REMARK 923 INTER-LIGAND FREE ENERGY PREDICTED BY IDOCK:   -6.53 KCAL/MOL
REMARK 924 INTRA-LIGAND FREE ENERGY PREDICTED BY IDOCK:   -0.96 KCAL/MOL
REMARK 927      BINDING AFFINITY PREDICTED BY RF-SCORE:    0.00 PKD
ROOT
HETATM    1  C   UNL     1      -6.690  20.856  67.283  1.00  0.00    -0.352 C  
HETATM    2  N   UNL     1      -7.554  19.985  68.079  1.00  0.00    -0.297 NA 
HETATM    3  C   UNL     1      -8.899  19.850  67.473  1.00  0.00    -0.338 C  
HETATM    4  C   UNL     1      -8.945  18.967  66.212  1.00  0.00    -0.279 C  
HETATM    5  N   UNL     1      -8.326  17.669  66.459  1.00  0.00    -0.259 N  
HETATM    6  C   UNL     1      -6.976  17.733  67.023  1.00  0.00    -0.176 C  
HETATM    7  C   UNL     1      -9.105  16.529  66.455  1.00  0.00    -0.276 C  
HETATM    8  O   UNL     1     -10.316  16.537  66.288  1.00  0.00    -0.308 OA 
HETATM    9  C   UNL     1      -6.955  18.643  68.272  1.00  0.00    -0.246 C  
ENDROOT
BRANCH   7  10
HETATM   10  O   UNL     1      -8.372  15.403  66.626  1.00  0.00    -0.258 OA 
BRANCH  10  11
HETATM   11  C   UNL     1      -8.887  14.472  67.577  1.00  0.00    -0.188 C  
HETATM   12  N   UNL     1      -8.937  13.158  66.957  1.00  0.00    -0.226 N  
HETATM   13  C   UNL     1      -8.039  12.264  67.526  1.00  0.00    -0.170 C  
HETATM   14  C   UNL     1      -7.820  14.292  68.630  1.00  0.00    -0.140 A  
HETATM   15  N   UNL     1      -7.347  15.222  69.492  1.00  0.00    -0.204 NA 
HETATM   16  C   UNL     1      -7.324  13.005  68.574  1.00  0.00    -0.115 A  
HETATM   17  O   UNL     1      -7.887  11.080  67.288  1.00  0.00    -0.114 OA 
HETATM   18  C   UNL     1      -6.351  14.764  70.294  1.00  0.00    -0.162 A  
HETATM   19  N   UNL     1      -6.346  12.527  69.367  1.00  0.00    -0.111 NA 
HETATM   20  C   UNL     1      -5.868  13.453  70.234  1.00  0.00    -0.157 A  
BRANCH  12  21
HETATM   21  C   UNL     1      -9.986  12.809  66.102  1.00  0.00    -0.266 A  
HETATM   22 CL   UNL     1     -13.160  11.855  63.107  1.00  0.00    -0.201 Cl 
HETATM   23  C   UNL     1     -12.308  12.848  65.472  1.00  0.00    -0.517 A  
HETATM   24  C   UNL     1     -10.644  11.869  64.090  1.00  0.00    -0.350 A  
HETATM   25  N   UNL     1      -9.658  12.128  64.983  1.00  0.00    -0.085 NA 
HETATM   26  C   UNL     1     -11.300  13.172  66.383  1.00  0.00    -0.349 A  
HETATM   27  C   UNL     1     -11.970  12.207  64.289  1.00  0.00    -0.380 A  
ENDBRANCH  12  21
ENDBRANCH  10  11
ENDBRANCH   7  10
TORSDOF 3
ENDMDL
MODEL       48
REMARK 921   NORMALIZED FREE ENERGY PREDICTED BY IDOCK:   -5.67 KCAL/MOL
REMARK 922        TOTAL FREE ENERGY PREDICTED BY IDOCK:   -7.47 KCAL/MOL
REMARK 923 INTER-LIGAND FREE ENERGY PREDICTED BY IDOCK:   -6.51 KCAL/MOL
REMARK 924 INTRA-LIGAND FREE ENERGY PREDICTED BY IDOCK:   -0.96 KCAL/MOL
REMARK 927      BINDING AFFINITY PREDICTED BY RF-SCORE:    0.00 PKD
ROOT
HETATM    1  C   UNL     1     -10.469  16.973  66.655  1.00  0.00    -0.253 C  
HETATM    2  N   UNL     1      -9.543  16.217  65.812  1.00  0.00    -0.479 NA 
HETATM    3  C   UNL     1      -8.256  15.970  66.501  1.00  0.00    -0.299 C  
HETATM    4  C   UNL     1      -8.321  14.908  67.615  1.00  0.00    -0.167 C  
HETATM    5  N   UNL     1      -8.921  13.672  67.123  1.00  0.00    -0.223 N  
HETATM    6  C   UNL     1     -10.218  13.842  66.464  1.00  0.00    -0.284 C  
HETATM    7  C   UNL     1      -8.149  12.532  67.020  1.00  0.00    -0.105 C  
HETATM    8  O   UNL     1      -6.956  12.495  67.288  1.00  0.00    -0.149 OA 
HETATM    9  C   UNL     1     -10.129  14.929  65.369  1.00  0.00    -0.367 C  
ENDROOT
BRANCH   7  10
HETATM   10  O   UNL     1      -8.869  11.456  66.620  1.00  0.00    -0.171 OA 
BRANCH  10  11
HETATM   11  C   UNL     1      -8.609  10.245  67.329  1.00  0.00    -0.125 C  
HETATM   12  N   UNL     1      -9.876   9.582  67.591  1.00  0.00    -0.158 N  
HETATM   13  C   UNL     1     -10.012   8.391  66.890  1.00  0.00    -0.271 C  
HETATM   14  C   UNL     1      -7.949   9.303  66.351  1.00  0.00    -0.107 A  
HETATM   15  N   UNL     1      -6.745   9.449  65.751  1.00  0.00    -0.076 NA 
HETATM   16  C   UNL     1      -8.787   8.237  66.093  1.00  0.00    -0.167 A  
HETATM   17  O   UNL     1     -10.911   7.571  66.944  1.00  0.00    -0.345 OA 
HETATM   18  C   UNL     1      -6.444   8.448  64.884  1.00  0.00    -0.064 A  
HETATM   19  N   UNL     1      -8.505   7.229  65.246  1.00  0.00    -0.104 NA 
HETATM   20  C   UNL     1      -7.299   7.368  64.642  1.00  0.00    -0.082 A  
BRANCH  12  21
HETATM   21  C   UNL     1     -10.690   9.987  68.654  1.00  0.00    -0.226 A  
HETATM   22 CL   UNL     1     -13.164  11.609  72.001  1.00  0.00    -0.562 Cl 
HETATM   23  C   UNL     1     -11.401   9.850  70.949  1.00  0.00    -0.446 A  
HETATM   24  C   UNL     1     -12.261  11.487  69.458  1.00  0.00    -0.221 A  
HETATM   25  N   UNL     1     -11.537  11.010  68.415  1.00  0.00    -0.420 NA 
HETATM   26  C   UNL     1     -10.606   9.376  69.902  1.00  0.00    -0.258 A  
HETATM   27  C   UNL     1     -12.225  10.944  70.729  1.00  0.00    -0.383 A  
ENDBRANCH  12  21
ENDBRANCH  10  11
ENDBRANCH   7  10
TORSDOF 3
ENDMDL
MODEL       49
REMARK 921   NORMALIZED FREE ENERGY PREDICTED BY IDOCK:   -5.67 KCAL/MOL
REMARK 922        TOTAL FREE ENERGY PREDICTED BY IDOCK:   -7.47 KCAL/MOL
REMARK 923 INTER-LIGAND FREE ENERGY PREDICTED BY IDOCK:   -6.34 KCAL/MOL
REMARK 924 INTRA-LIGAND FREE ENERGY PREDICTED BY IDOCK:   -1.13 KCAL/MOL
REMARK 927      BINDING AFFINITY PREDICTED BY RF-SCORE:    0.00 PKD
ROOT
HETATM    1  C   UNL     1      -8.918   8.709  67.778  1.00  0.00    -0.136 C  
HETATM    2  N   UNL     1      -8.082   9.519  68.662  1.00  0.00    -0.096 NA 
HETATM    3  C   UNL     1      -6.824   9.931  67.998  1.00  0.00    -0.072 C  
HETATM    4  C   UNL     1      -6.996  11.030  66.932  1.00  0.00    -0.125 C  
HETATM    5  N   UNL     1      -7.726  12.172  67.472  1.00  0.00    -0.148 N  
HETATM    6  C   UNL     1      -9.000  11.837  68.110  1.00  0.00    -0.181 C  
HETATM    7  C   UNL     1      -7.079  13.382  67.633  1.00  0.00    -0.162 C  
HETATM    8  O   UNL     1      -5.895  13.556  67.379  1.00  0.00    -0.348 OA 
HETATM    9  C   UNL     1      -8.802  10.717  69.157  1.00  0.00    -0.122 C  
ENDROOT
BRANCH   7  10
HETATM   10  O   UNL     1      -7.910  14.356  68.073  1.00  0.00    -0.118 OA 
BRANCH  10  11
HETATM   11  C   UNL     1      -8.146  15.423  67.155  1.00  0.00    -0.217 C  
HETATM   12  N   UNL     1      -9.573  15.699  67.123  1.00  0.00    -0.216 N  
HETATM   13  C   UNL     1      -9.890  16.941  67.657  1.00  0.00    -0.259 C  
HETATM   14  C   UNL     1      -7.590  16.674  67.794  1.00  0.00    -0.159 A  
HETATM   15  N   UNL     1      -6.298  16.944  68.091  1.00  0.00    -0.137 NA 
HETATM   16  C   UNL     1      -8.622  17.540  68.095  1.00  0.00    -0.258 A  
HETATM   17  O   UNL     1     -10.973  17.495  67.711  1.00  0.00    -0.314 OA 
HETATM   18  C   UNL     1      -6.119  18.143  68.703  1.00  0.00    -0.197 A  
HETATM   19  N   UNL     1      -8.467  18.738  68.692  1.00  0.00    -0.342 NA 
HETATM   20  C   UNL     1      -7.174  19.015  68.992  1.00  0.00    -0.316 A  
BRANCH  12  21
HETATM   21  C   UNL     1     -10.438  14.905  66.365  1.00  0.00    -0.299 A  
HETATM   22 CL   UNL     1     -13.114  12.095  64.151  1.00  0.00    -0.301 Cl 
HETATM   23  C   UNL     1     -11.162  13.961  64.273  1.00  0.00    -0.278 A  
HETATM   24  C   UNL     1     -12.170  13.366  66.339  1.00  0.00    -0.376 A  
HETATM   25  N   UNL     1     -11.386  14.221  67.041  1.00  0.00    -0.326 NA 
HETATM   26  C   UNL     1     -10.308  14.809  64.982  1.00  0.00    -0.420 A  
HETATM   27  C   UNL     1     -12.094  13.204  64.968  1.00  0.00    -0.415 A  
ENDBRANCH  12  21
ENDBRANCH  10  11
ENDBRANCH   7  10
TORSDOF 3
ENDMDL
MODEL       50
REMARK 921   NORMALIZED FREE ENERGY PREDICTED BY IDOCK:   -5.64 KCAL/MOL
REMARK 922        TOTAL FREE ENERGY PREDICTED BY IDOCK:   -7.43 KCAL/MOL
REMARK 923 INTER-LIGAND FREE ENERGY PREDICTED BY IDOCK:   -6.60 KCAL/MOL
REMARK 924 INTRA-LIGAND FREE ENERGY PREDICTED BY IDOCK:   -0.83 KCAL/MOL
REMARK 927      BINDING AFFINITY PREDICTED BY RF-SCORE:    0.00 PKD
ROOT
HETATM    1  C   UNL     1      -7.874   6.846  64.481  1.00  0.00    -0.115 C  
HETATM    2  N   UNL     1      -7.531   7.973  65.346  1.00  0.00    -0.076 NA 
HETATM    3  C   UNL     1      -7.694   9.268  64.647  1.00  0.00    -0.116 C  
HETATM    4  C   UNL     1      -9.157   9.702  64.438  1.00  0.00    -0.229 C  
HETATM    5  N   UNL     1      -9.897   9.665  65.695  1.00  0.00    -0.305 N  
HETATM    6  C   UNL     1      -9.809   8.395  66.420  1.00  0.00    -0.240 C  
HETATM    7  C   UNL     1     -10.343  10.844  66.259  1.00  0.00    -0.250 C  
HETATM    8  O   UNL     1     -10.125  11.948  65.782  1.00  0.00    -0.226 OA 
HETATM    9  C   UNL     1      -8.332   7.974  66.594  1.00  0.00    -0.120 C  
ENDROOT
BRANCH   7  10
HETATM   10  O   UNL     1     -11.074  10.634  67.380  1.00  0.00    -0.302 OA 
BRANCH  10  11
HETATM   11  C   UNL     1     -10.471  11.071  68.597  1.00  0.00    -0.192 C  
HETATM   12  N   UNL     1     -11.191  12.239  69.077  1.00  0.00    -0.256 N  
HETATM   13  C   UNL     1     -11.884  11.995  70.255  1.00  0.00    -0.270 C  
HETATM   14  C   UNL     1     -10.808  10.034  69.644  1.00  0.00    -0.260 A  
HETATM   15  N   UNL     1     -10.417   8.739  69.676  1.00  0.00    -0.217 NA 
HETATM   16  C   UNL     1     -11.646  10.585  70.592  1.00  0.00    -0.352 A  
HETATM   17  O   UNL     1     -12.517  12.775  70.944  1.00  0.00    -0.367 OA 
HETATM   18  C   UNL     1     -10.921   8.045  70.729  1.00  0.00    -0.248 A  
HETATM   19  N   UNL     1     -12.148   9.919  71.649  1.00  0.00    -0.398 NA 
HETATM   20  C   UNL     1     -11.760   8.621  71.689  1.00  0.00    -0.313 A  
BRANCH  12  21
HETATM   21  C   UNL     1     -10.937  13.505  68.540  1.00  0.00    -0.267 A  
HETATM   22 CL   UNL     1     -10.053  17.659  67.156  1.00  0.00    -0.315 Cl 
HETATM   23  C   UNL     1     -11.611  15.456  67.303  1.00  0.00    -0.094 A  
HETATM   24  C   UNL     1      -9.510  15.324  68.401  1.00  0.00    -0.206 A  
HETATM   25  N   UNL     1      -9.738  14.057  68.824  1.00  0.00    -0.172 NA 
HETATM   26  C   UNL     1     -11.889  14.170  67.773  1.00  0.00    -0.414 A  
HETATM   27  C   UNL     1     -10.408  16.056  67.646  1.00  0.00    -0.284 A  
ENDBRANCH  12  21
ENDBRANCH  10  11
ENDBRANCH   7  10
TORSDOF 3
ENDMDL
MODEL       51
REMARK 921   NORMALIZED FREE ENERGY PREDICTED BY IDOCK:   -5.62 KCAL/MOL
REMARK 922        TOTAL FREE ENERGY PREDICTED BY IDOCK:   -7.42 KCAL/MOL
REMARK 923 INTER-LIGAND FREE ENERGY PREDICTED BY IDOCK:   -6.51 KCAL/MOL
REMARK 924 INTRA-LIGAND FREE ENERGY PREDICTED BY IDOCK:   -0.90 KCAL/MOL
REMARK 927      BINDING AFFINITY PREDICTED BY RF-SCORE:    0.00 PKD
ROOT
HETATM    1  C   UNL     1     -10.770   6.744  72.399  1.00  0.00    -0.226 C  
HETATM    2  N   UNL     1     -11.944   7.329  71.753  1.00  0.00    -0.294 NA 
HETATM    3  C   UNL     1     -12.124   8.749  72.132  1.00  0.00    -0.371 C  
HETATM    4  C   UNL     1     -11.118   9.717  71.482  1.00  0.00    -0.264 C  
HETATM    5  N   UNL     1     -11.083   9.541  70.035  1.00  0.00    -0.241 N  
HETATM    6  C   UNL     1     -10.868   8.161  69.591  1.00  0.00    -0.158 C  
HETATM    7  C   UNL     1     -11.545  10.550  69.213  1.00  0.00    -0.236 C  
HETATM    8  O   UNL     1     -12.025  11.595  69.628  1.00  0.00    -0.306 OA 
HETATM    9  C   UNL     1     -11.876   7.210  70.276  1.00  0.00    -0.133 C  
ENDROOT
BRANCH   7  10
HETATM   10  O   UNL     1     -11.377  10.263  67.900  1.00  0.00    -0.294 OA 
BRANCH  10  11
HETATM   11  C   UNL     1     -10.428  11.075  67.210  1.00  0.00    -0.231 C  
HETATM   12  N   UNL     1      -9.465  10.206  66.554  1.00  0.00    -0.164 N  
HETATM   13  C   UNL     1      -9.555  10.255  65.169  1.00  0.00    -0.277 C  
HETATM   14  C   UNL     1     -11.156  11.691  66.038  1.00  0.00    -0.270 A  
HETATM   15  N   UNL     1     -12.185  12.569  66.076  1.00  0.00    -0.620 NA 
HETATM   16  C   UNL     1     -10.646  11.189  64.858  1.00  0.00    -0.289 A  
HETATM   17  O   UNL     1      -8.852   9.710  64.338  1.00  0.00    -0.203 OA 
HETATM   18  C   UNL     1     -12.657  12.908  64.848  1.00  0.00    -0.458 A  
HETATM   19  N   UNL     1     -11.091  11.520  63.630  1.00  0.00    -0.408 NA 
HETATM   20  C   UNL     1     -12.122  12.400  63.661  1.00  0.00    -0.556 A  
BRANCH  12  21
HETATM   21  C   UNL     1      -8.405   9.642  67.271  1.00  0.00    -0.114 A  
HETATM   22 CL   UNL     1      -5.211   7.543  69.583  1.00  0.00    -0.022 Cl 
HETATM   23  C   UNL     1      -6.888   9.616  69.139  1.00  0.00    -0.050 A  
HETATM   24  C   UNL     1      -6.947   7.863  67.538  1.00  0.00    -0.075 A  
HETATM   25  N   UNL     1      -7.905   8.479  66.803  1.00  0.00    -0.090 NA 
HETATM   26  C   UNL     1      -7.912  10.243  68.426  1.00  0.00    -0.108 A  
HETATM   27  C   UNL     1      -6.414   8.388  68.701  1.00  0.00    -0.054 A  
ENDBRANCH  12  21
ENDBRANCH  10  11
ENDBRANCH   7  10
TORSDOF 3
ENDMDL
MODEL       52
REMARK 921   NORMALIZED FREE ENERGY PREDICTED BY IDOCK:   -5.58 KCAL/MOL
REMARK 922        TOTAL FREE ENERGY PREDICTED BY IDOCK:   -7.37 KCAL/MOL
REMARK 923 INTER-LIGAND FREE ENERGY PREDICTED BY IDOCK:   -6.72 KCAL/MOL
REMARK 924 INTRA-LIGAND FREE ENERGY PREDICTED BY IDOCK:   -0.65 KCAL/MOL
REMARK 927      BINDING AFFINITY PREDICTED BY RF-SCORE:    0.00 PKD
ROOT
HETATM    1  C   UNL     1     -13.217  15.954  71.848  1.00  0.00    -0.281 C  
HETATM    2  N   UNL     1     -12.130  14.991  72.020  1.00  0.00    -0.361 NA 
HETATM    3  C   UNL     1     -12.508  13.902  72.950  1.00  0.00     0.175 C  
HETATM    4  C   UNL     1     -13.501  12.880  72.367  1.00  0.00    -0.471 C  
HETATM    5  N   UNL     1     -13.028  12.363  71.087  1.00  0.00    -0.215 N  
HETATM    6  C   UNL     1     -12.673  13.391  70.106  1.00  0.00     0.040 C  
HETATM    7  C   UNL     1     -12.655  11.037  70.982  1.00  0.00    -0.411 C  
HETATM    8  O   UNL     1     -12.663  10.255  71.922  1.00  0.00    -0.415 OA 
HETATM    9  C   UNL     1     -11.695  14.415  70.725  1.00  0.00    -0.236 C  
ENDROOT
BRANCH   7  10
HETATM   10  O   UNL     1     -12.312  10.697  69.716  1.00  0.00    -0.299 OA 
BRANCH  10  11
HETATM   11  C   UNL     1     -10.917  10.496  69.491  1.00  0.00    -0.264 C  
HETATM   12  N   UNL     1     -10.652   9.067  69.482  1.00  0.00    -0.226 N  
HETATM   13  C   UNL     1     -10.268   8.600  68.231  1.00  0.00    -0.198 C  
HETATM   14  C   UNL     1     -10.650  10.881  68.055  1.00  0.00    -0.202 A  
HETATM   15  N   UNL     1     -10.771  12.107  67.494  1.00  0.00    -0.226 NA 
HETATM   16  C   UNL     1     -10.290   9.762  67.332  1.00  0.00    -0.240 A  
HETATM   17  O   UNL     1      -9.910   7.482  67.911  1.00  0.00    -0.145 OA 
HETATM   18  C   UNL     1     -10.499  12.126  66.164  1.00  0.00    -0.248 A  
HETATM   19  N   UNL     1     -10.006   9.760  66.016  1.00  0.00    -0.273 NA 
HETATM   20  C   UNL     1     -10.124  10.985  65.447  1.00  0.00    -0.269 A  
BRANCH  12  21
HETATM   21  C   UNL     1     -10.523   8.356  70.680  1.00  0.00    -0.200 A  
HETATM   22 CL   UNL     1     -10.463   6.126  74.550  1.00  0.00    -0.216 Cl 
HETATM   23  C   UNL     1      -9.574   8.047  72.869  1.00  0.00    -0.348 A  
HETATM   24  C   UNL     1     -11.290   6.637  72.030  1.00  0.00    -0.280 A  
HETATM   25  N   UNL     1     -11.324   7.280  70.837  1.00  0.00    -0.272 NA 
HETATM   26  C   UNL     1      -9.629   8.758  71.668  1.00  0.00    -0.363 A  
HETATM   27  C   UNL     1     -10.441   6.982  73.065  1.00  0.00    -0.277 A  
ENDBRANCH  12  21
ENDBRANCH  10  11
ENDBRANCH   7  10
TORSDOF 3
ENDMDL
MODEL       53
REMARK 921   NORMALIZED FREE ENERGY PREDICTED BY IDOCK:   -5.56 KCAL/MOL
REMARK 922        TOTAL FREE ENERGY PREDICTED BY IDOCK:   -7.34 KCAL/MOL
REMARK 923 INTER-LIGAND FREE ENERGY PREDICTED BY IDOCK:   -6.23 KCAL/MOL
REMARK 924 INTRA-LIGAND FREE ENERGY PREDICTED BY IDOCK:   -1.11 KCAL/MOL
REMARK 927      BINDING AFFINITY PREDICTED BY RF-SCORE:    0.00 PKD
ROOT
HETATM    1  C   UNL     1      -7.285  19.852  69.052  1.00  0.00    -0.246 C  
HETATM    2  N   UNL     1      -7.061  18.921  67.946  1.00  0.00    -0.231 NA 
HETATM    3  C   UNL     1      -6.138  17.829  68.331  1.00  0.00    -0.174 C  
HETATM    4  C   UNL     1      -6.752  16.774  69.270  1.00  0.00    -0.229 C  
HETATM    5  N   UNL     1      -8.007  16.261  68.731  1.00  0.00    -0.208 N  
HETATM    6  C   UNL     1      -8.982  17.292  68.366  1.00  0.00    -0.269 C  
HETATM    7  C   UNL     1      -8.085  14.946  68.316  1.00  0.00    -0.132 C  
HETATM    8  O   UNL     1      -7.140  14.171  68.340  1.00  0.00    -0.087 OA 
HETATM    9  C   UNL     1      -8.332  18.348  67.443  1.00  0.00    -0.252 C  
ENDROOT
BRANCH   7  10
HETATM   10  O   UNL     1      -9.333  14.607  67.912  1.00  0.00    -0.192 OA 
BRANCH  10  11
HETATM   11  C   UNL     1      -9.403  13.849  66.706  1.00  0.00    -0.275 C  
HETATM   12  N   UNL     1     -10.117  12.612  66.977  1.00  0.00    -0.223 N  
HETATM   13  C   UNL     1     -11.346  12.551  66.333  1.00  0.00    -0.329 C  
HETATM   14  C   UNL     1     -10.358  14.578  65.790  1.00  0.00    -0.331 A  
HETATM   15  N   UNL     1     -10.203  15.808  65.248  1.00  0.00    -0.442 NA 
HETATM   16  C   UNL     1     -11.492  13.815  65.598  1.00  0.00    -0.310 A  
HETATM   17  O   UNL     1     -12.144  11.632  66.296  1.00  0.00    -0.333 OA 
HETATM   18  C   UNL     1     -11.261  16.210  64.498  1.00  0.00    -0.264 A  
HETATM   19  N   UNL     1     -12.548  14.188  64.850  1.00  0.00    -0.645 NA 
HETATM   20  C   UNL     1     -12.399  15.420  64.303  1.00  0.00    -0.061 A  
BRANCH  12  21
HETATM   21  C   UNL     1      -9.469  11.528  67.577  1.00  0.00    -0.169 A  
HETATM   22 CL   UNL     1      -7.512   7.866  69.224  1.00  0.00    -0.090 Cl 
HETATM   23  C   UNL     1      -9.107  10.038  69.432  1.00  0.00    -0.228 A  
HETATM   24  C   UNL     1      -8.027   9.731  67.339  1.00  0.00    -0.102 A  
HETATM   25  N   UNL     1      -8.590  10.846  66.812  1.00  0.00    -0.133 NA 
HETATM   26  C   UNL     1      -9.739  11.161  68.892  1.00  0.00    -0.163 A  
HETATM   27  C   UNL     1      -8.254   9.293  68.631  1.00  0.00    -0.113 A  
ENDBRANCH  12  21
ENDBRANCH  10  11
ENDBRANCH   7  10
TORSDOF 3
ENDMDL
MODEL       54
REMARK 921   NORMALIZED FREE ENERGY PREDICTED BY IDOCK:   -5.55 KCAL/MOL
REMARK 922        TOTAL FREE ENERGY PREDICTED BY IDOCK:   -7.33 KCAL/MOL
REMARK 923 INTER-LIGAND FREE ENERGY PREDICTED BY IDOCK:   -6.44 KCAL/MOL
REMARK 924 INTRA-LIGAND FREE ENERGY PREDICTED BY IDOCK:   -0.90 KCAL/MOL
REMARK 927      BINDING AFFINITY PREDICTED BY RF-SCORE:    0.00 PKD
ROOT
HETATM    1  C   UNL     1     -10.818   7.305  73.313  1.00  0.00    -0.358 C  
HETATM    2  N   UNL     1     -11.179   7.236  71.898  1.00  0.00    -0.242 NA 
HETATM    3  C   UNL     1     -12.392   8.032  71.604  1.00  0.00    -0.314 C  
HETATM    4  C   UNL     1     -12.172   9.557  71.610  1.00  0.00    -0.398 C  
HETATM    5  N   UNL     1     -11.055   9.928  70.748  1.00  0.00    -0.327 N  
HETATM    6  C   UNL     1      -9.811   9.202  71.013  1.00  0.00    -0.296 C  
HETATM    7  C   UNL     1     -11.293  10.653  69.597  1.00  0.00    -0.294 C  
HETATM    8  O   UNL     1     -12.409  10.986  69.225  1.00  0.00    -0.412 OA 
HETATM    9  C   UNL     1     -10.066   7.678  71.024  1.00  0.00    -0.189 C  
ENDROOT
BRANCH   7  10
HETATM   10  O   UNL     1     -10.149  10.980  68.949  1.00  0.00    -0.197 OA 
BRANCH  10  11
HETATM   11  C   UNL     1     -10.210  10.913  67.525  1.00  0.00    -0.190 C  
HETATM   12  N   UNL     1      -9.057  11.610  66.980  1.00  0.00    -0.174 N  
HETATM   13  C   UNL     1      -8.166  10.756  66.342  1.00  0.00    -0.155 C  
HETATM   14  C   UNL     1      -9.927   9.478  67.146  1.00  0.00    -0.204 A  
HETATM   15  N   UNL     1     -10.675   8.387  67.432  1.00  0.00    -0.229 NA 
HETATM   16  C   UNL     1      -8.724   9.403  66.473  1.00  0.00    -0.134 A  
HETATM   17  O   UNL     1      -7.153  11.031  65.726  1.00  0.00    -0.044 OA 
HETATM   18  C   UNL     1     -10.132   7.224  66.989  1.00  0.00    -0.246 A  
HETATM   19  N   UNL     1      -8.173   8.263  66.016  1.00  0.00    -0.112 NA 
HETATM   20  C   UNL     1      -8.918   7.165  66.298  1.00  0.00    -0.155 A  
BRANCH  12  21
HETATM   21  C   UNL     1      -9.047  13.005  66.877  1.00  0.00    -0.227 A  
HETATM   22 CL   UNL     1      -8.918  17.420  66.210  1.00  0.00    -0.267 Cl 
HETATM   23  C   UNL     1      -8.265  15.174  67.565  1.00  0.00    -0.196 A  
HETATM   24  C   UNL     1      -9.714  14.888  65.705  1.00  0.00    -0.324 A  
HETATM   25  N   UNL     1      -9.789  13.547  65.888  1.00  0.00    -0.272 NA 
HETATM   26  C   UNL     1      -8.286  13.789  67.740  1.00  0.00    -0.174 A  
HETATM   27  C   UNL     1      -8.972  15.733  66.510  1.00  0.00    -0.306 A  
ENDBRANCH  12  21
ENDBRANCH  10  11
ENDBRANCH   7  10
TORSDOF 3
ENDMDL
MODEL       55
REMARK 921   NORMALIZED FREE ENERGY PREDICTED BY IDOCK:   -5.48 KCAL/MOL
REMARK 922        TOTAL FREE ENERGY PREDICTED BY IDOCK:   -7.25 KCAL/MOL
REMARK 923 INTER-LIGAND FREE ENERGY PREDICTED BY IDOCK:   -6.29 KCAL/MOL
REMARK 924 INTRA-LIGAND FREE ENERGY PREDICTED BY IDOCK:   -0.96 KCAL/MOL
REMARK 927      BINDING AFFINITY PREDICTED BY RF-SCORE:    0.00 PKD
ROOT
HETATM    1  C   UNL     1      -5.816   5.315  65.491  1.00  0.00    -0.021 C  
HETATM    2  N   UNL     1      -6.970   5.813  64.743  1.00  0.00    -0.051 NA 
HETATM    3  C   UNL     1      -8.245   5.339  65.326  1.00  0.00    -0.130 C  
HETATM    4  C   UNL     1      -8.637   6.025  66.648  1.00  0.00    -0.113 C  
HETATM    5  N   UNL     1      -8.608   7.477  66.512  1.00  0.00    -0.125 N  
HETATM    6  C   UNL     1      -7.356   8.016  65.975  1.00  0.00    -0.073 C  
HETATM    7  C   UNL     1      -9.786   8.193  66.582  1.00  0.00    -0.261 C  
HETATM    8  O   UNL     1     -10.886   7.676  66.721  1.00  0.00    -0.274 OA 
HETATM    9  C   UNL     1      -6.976   7.294  64.663  1.00  0.00    -0.051 C  
ENDROOT
BRANCH   7  10
HETATM   10  O   UNL     1      -9.582   9.530  66.512  1.00  0.00    -0.172 OA 
BRANCH  10  11
HETATM   11  C   UNL     1     -10.694  10.342  66.884  1.00  0.00    -0.207 C  
HETATM   12  N   UNL     1     -10.376  11.021  68.130  1.00  0.00    -0.176 N  
HETATM   13  C   UNL     1     -10.244  12.395  67.973  1.00  0.00    -0.219 C  
HETATM   14  C   UNL     1     -10.745  11.487  65.899  1.00  0.00    -0.272 A  
HETATM   15  N   UNL     1     -10.979  11.418  64.567  1.00  0.00    -0.310 NA 
HETATM   16  C   UNL     1     -10.463  12.672  66.547  1.00  0.00    -0.247 A  
HETATM   17  O   UNL     1     -10.056  13.245  68.824  1.00  0.00    -0.186 OA 
HETATM   18  C   UNL     1     -10.917  12.622  63.942  1.00  0.00    -0.424 A  
HETATM   19  N   UNL     1     -10.406  13.877  65.949  1.00  0.00    -0.302 NA 
HETATM   20  C   UNL     1     -10.641  13.816  64.615  1.00  0.00    -0.425 A  
BRANCH  12  21
HETATM   21  C   UNL     1     -10.497  10.359  69.356  1.00  0.00    -0.238 A  
HETATM   22 CL   UNL     1     -10.734   7.962  73.118  1.00  0.00    -0.406 Cl 
HETATM   23  C   UNL     1     -11.807   9.533  71.198  1.00  0.00    -0.436 A  
HETATM   24  C   UNL     1      -9.484   9.080  71.000  1.00  0.00    -0.274 A  
HETATM   25  N   UNL     1      -9.372   9.813  69.865  1.00  0.00    -0.223 NA 
HETATM   26  C   UNL     1     -11.726  10.250  70.002  1.00  0.00    -0.330 A  
HETATM   27  C   UNL     1     -10.669   8.913  71.693  1.00  0.00    -0.347 A  
ENDBRANCH  12  21
ENDBRANCH  10  11
ENDBRANCH   7  10
TORSDOF 3
ENDMDL
MODEL       56
REMARK 921   NORMALIZED FREE ENERGY PREDICTED BY IDOCK:   -5.38 KCAL/MOL
REMARK 922        TOTAL FREE ENERGY PREDICTED BY IDOCK:   -7.13 KCAL/MOL
REMARK 923 INTER-LIGAND FREE ENERGY PREDICTED BY IDOCK:   -6.83 KCAL/MOL
REMARK 924 INTRA-LIGAND FREE ENERGY PREDICTED BY IDOCK:   -0.31 KCAL/MOL
REMARK 927      BINDING AFFINITY PREDICTED BY RF-SCORE:    0.00 PKD
ROOT
HETATM    1  C   UNL     1     -12.624  14.800  64.868  1.00  0.00    -0.087 C  
HETATM    2  N   UNL     1     -11.791  13.717  64.347  1.00  0.00    -0.410 NA 
HETATM    3  C   UNL     1     -10.356  13.948  64.630  1.00  0.00    -0.339 C  
HETATM    4  C   UNL     1      -9.953  13.730  66.100  1.00  0.00    -0.308 C  
HETATM    5  N   UNL     1     -10.399  12.425  66.577  1.00  0.00    -0.226 N  
HETATM    6  C   UNL     1     -11.821  12.149  66.362  1.00  0.00    -0.246 C  
HETATM    7  C   UNL     1      -9.466  11.456  66.889  1.00  0.00    -0.179 C  
HETATM    8  O   UNL     1      -8.260  11.610  66.757  1.00  0.00    -0.164 OA 
HETATM    9  C   UNL     1     -12.202  12.398  64.885  1.00  0.00    -0.418 C  
ENDROOT
BRANCH   7  10
HETATM   10  O   UNL     1     -10.036  10.332  67.385  1.00  0.00    -0.176 OA 
BRANCH  10  11
HETATM   11  C   UNL     1      -9.564   9.918  68.666  1.00  0.00    -0.156 C  
HETATM   12  N   UNL     1     -10.700   9.472  69.456  1.00  0.00    -0.224 N  
HETATM   13  C   UNL     1     -10.671   8.108  69.715  1.00  0.00    -0.229 C  
HETATM   14  C   UNL     1      -8.797   8.634  68.452  1.00  0.00    -0.142 A  
HETATM   15  N   UNL     1      -7.653   8.465  67.750  1.00  0.00    -0.100 NA 
HETATM   16  C   UNL     1      -9.466   7.588  69.055  1.00  0.00    -0.145 A  
HETATM   17  O   UNL     1     -11.427   7.444  70.401  1.00  0.00    -0.279 OA 
HETATM   18  C   UNL     1      -7.228   7.176  67.705  1.00  0.00    -0.091 A  
HETATM   19  N   UNL     1      -9.057   6.304  69.031  1.00  0.00    -0.129 NA 
HETATM   20  C   UNL     1      -7.910   6.127  68.330  1.00  0.00    -0.104 A  
BRANCH  12  21
HETATM   21  C   UNL     1     -11.530  10.395  70.100  1.00  0.00    -0.319 A  
HETATM   22 CL   UNL     1     -13.888  13.506  72.273  1.00  0.00    -0.659 Cl 
HETATM   23  C   UNL     1     -13.276  10.944  71.663  1.00  0.00    -0.471 A  
HETATM   24  C   UNL     1     -12.044  12.616  70.511  1.00  0.00    -0.275 A  
HETATM   25  N   UNL     1     -11.321  11.699  69.822  1.00  0.00    -0.237 NA 
HETATM   26  C   UNL     1     -12.507   9.983  71.003  1.00  0.00    -0.460 A  
HETATM   27  C   UNL     1     -13.021  12.289  71.432  1.00  0.00    -0.256 A  
ENDBRANCH  12  21
ENDBRANCH  10  11
ENDBRANCH   7  10
TORSDOF 3
ENDMDL
MODEL       57
REMARK 921   NORMALIZED FREE ENERGY PREDICTED BY IDOCK:   -5.36 KCAL/MOL
REMARK 922        TOTAL FREE ENERGY PREDICTED BY IDOCK:   -7.11 KCAL/MOL
REMARK 923 INTER-LIGAND FREE ENERGY PREDICTED BY IDOCK:   -6.01 KCAL/MOL
REMARK 924 INTRA-LIGAND FREE ENERGY PREDICTED BY IDOCK:   -1.11 KCAL/MOL
REMARK 927      BINDING AFFINITY PREDICTED BY RF-SCORE:    0.00 PKD
ROOT
HETATM    1  C   UNL     1     -11.202   6.269  72.922  1.00  0.00    -0.200 C  
HETATM    2  N   UNL     1     -10.916   7.695  73.073  1.00  0.00    -0.400 NA 
HETATM    3  C   UNL     1      -9.459   7.957  73.119  1.00  0.00    -0.278 C  
HETATM    4  C   UNL     1      -8.743   7.820  71.762  1.00  0.00    -0.119 C  
HETATM    5  N   UNL     1      -9.408   8.618  70.737  1.00  0.00    -0.177 N  
HETATM    6  C   UNL     1     -10.848   8.378  70.614  1.00  0.00    -0.231 C  
HETATM    7  C   UNL     1      -8.762   9.713  70.197  1.00  0.00    -0.231 C  
HETATM    8  O   UNL     1      -7.653  10.088  70.553  1.00  0.00    -0.276 OA 
HETATM    9  C   UNL     1     -11.536   8.498  71.993  1.00  0.00    -0.361 C  
ENDROOT
BRANCH   7  10
HETATM   10  O   UNL     1      -9.480  10.300  69.211  1.00  0.00    -0.198 OA 
BRANCH  10  11
HETATM   11  C   UNL     1      -8.806  10.441  67.961  1.00  0.00    -0.130 C  
HETATM   12  N   UNL     1      -9.623   9.835  66.923  1.00  0.00    -0.172 N  
HETATM   13  C   UNL     1     -10.130  10.767  66.027  1.00  0.00    -0.249 C  
HETATM   14  C   UNL     1      -8.864  11.907  67.600  1.00  0.00    -0.169 A  
HETATM   15  N   UNL     1      -8.290  12.942  68.258  1.00  0.00    -0.163 NA 
HETATM   16  C   UNL     1      -9.654  12.080  66.482  1.00  0.00    -0.224 A  
HETATM   17  O   UNL     1     -10.782  10.578  65.016  1.00  0.00    -0.156 OA 
HETATM   18  C   UNL     1      -8.561  14.154  67.708  1.00  0.00    -0.184 A  
HETATM   19  N   UNL     1      -9.927  13.271  65.914  1.00  0.00    -0.286 NA 
HETATM   20  C   UNL     1      -9.354  14.312  66.567  1.00  0.00    -0.271 A  
BRANCH  12  21
HETATM   21  C   UNL     1      -9.619   8.450  66.727  1.00  0.00    -0.219 A  
HETATM   22 CL   UNL     1      -9.536   4.090  65.759  1.00  0.00    -0.166 Cl 
HETATM   23  C   UNL     1     -10.679   6.293  66.831  1.00  0.00    -0.411 A  
HETATM   24  C   UNL     1      -8.537   6.599  65.851  1.00  0.00    -0.148 A  
HETATM   25  N   UNL     1      -8.522   7.922  66.144  1.00  0.00    -0.126 NA 
HETATM   26  C   UNL     1     -10.707   7.664  67.095  1.00  0.00    -0.361 A  
HETATM   27  C   UNL     1      -9.584   5.753  66.172  1.00  0.00    -0.099 A  
ENDBRANCH  12  21
ENDBRANCH  10  11
ENDBRANCH   7  10
TORSDOF 3
ENDMDL
MODEL       58
REMARK 921   NORMALIZED FREE ENERGY PREDICTED BY IDOCK:   -5.34 KCAL/MOL
REMARK 922        TOTAL FREE ENERGY PREDICTED BY IDOCK:   -7.09 KCAL/MOL
REMARK 923 INTER-LIGAND FREE ENERGY PREDICTED BY IDOCK:   -6.08 KCAL/MOL
REMARK 924 INTRA-LIGAND FREE ENERGY PREDICTED BY IDOCK:   -1.00 KCAL/MOL
REMARK 927      BINDING AFFINITY PREDICTED BY RF-SCORE:    0.00 PKD
ROOT
HETATM    1  C   UNL     1      -6.112  17.552  69.779  1.00  0.00    -0.222 C  
HETATM    2  N   UNL     1      -6.050  16.672  68.613  1.00  0.00    -0.137 NA 
HETATM    3  C   UNL     1      -5.741  15.276  68.998  1.00  0.00    -0.098 C  
HETATM    4  C   UNL     1      -6.906  14.526  69.669  1.00  0.00    -0.142 C  
HETATM    5  N   UNL     1      -8.118  14.611  68.861  1.00  0.00    -0.155 N  
HETATM    6  C   UNL     1      -8.502  15.972  68.478  1.00  0.00    -0.189 C  
HETATM    7  C   UNL     1      -8.624  13.472  68.267  1.00  0.00    -0.168 C  
HETATM    8  O   UNL     1      -8.093  12.373  68.347  1.00  0.00    -0.154 OA 
HETATM    9  C   UNL     1      -7.308  16.708  67.829  1.00  0.00    -0.148 C  
ENDROOT
BRANCH   7  10
HETATM   10  O   UNL     1      -9.788  13.705  67.616  1.00  0.00    -0.219 OA 
BRANCH  10  11
HETATM   11  C   UNL     1      -9.805  13.338  66.237  1.00  0.00    -0.285 C  
HETATM   12  N   UNL     1     -10.727  12.227  66.065  1.00  0.00    -0.254 N  
HETATM   13  C   UNL     1     -11.851  12.573  65.326  1.00  0.00    -0.413 C  
HETATM   14  C   UNL     1     -10.506  14.455  65.499  1.00  0.00    -0.350 A  
HETATM   15  N   UNL     1     -10.096  15.738  65.363  1.00  0.00    -0.412 NA 
HETATM   16  C   UNL     1     -11.704  13.996  64.991  1.00  0.00    -0.364 A  
HETATM   17  O   UNL     1     -12.764  11.863  64.948  1.00  0.00    -0.281 OA 
HETATM   18  C   UNL     1     -10.970  16.518  64.676  1.00  0.00    -0.080 A  
HETATM   19  N   UNL     1     -12.580  14.749  64.298  1.00  0.00    -0.730 NA 
HETATM   20  C   UNL     1     -12.175  16.036  64.157  1.00  0.00     0.427 A  
BRANCH  12  21
HETATM   21  C   UNL     1     -10.336  10.920  66.370  1.00  0.00    -0.251 A  
HETATM   22 CL   UNL     1      -9.221   6.645  67.030  1.00  0.00    -0.137 Cl 
HETATM   23  C   UNL     1     -10.382   8.969  67.778  1.00  0.00    -0.304 A  
HETATM   24  C   UNL     1      -9.252   8.990  65.689  1.00  0.00    -0.225 A  
HETATM   25  N   UNL     1      -9.558  10.291  65.464  1.00  0.00    -0.221 NA 
HETATM   26  C   UNL     1     -10.754  10.294  67.541  1.00  0.00    -0.348 A  
HETATM   27  C   UNL     1      -9.639   8.294  66.820  1.00  0.00    -0.224 A  
ENDBRANCH  12  21
ENDBRANCH  10  11
ENDBRANCH   7  10
TORSDOF 3
ENDMDL
MODEL       59
REMARK 921   NORMALIZED FREE ENERGY PREDICTED BY IDOCK:   -5.32 KCAL/MOL
REMARK 922        TOTAL FREE ENERGY PREDICTED BY IDOCK:   -7.06 KCAL/MOL
REMARK 923 INTER-LIGAND FREE ENERGY PREDICTED BY IDOCK:   -8.51 KCAL/MOL
REMARK 924 INTRA-LIGAND FREE ENERGY PREDICTED BY IDOCK:    1.45 KCAL/MOL
REMARK 927      BINDING AFFINITY PREDICTED BY RF-SCORE:    0.00 PKD
ROOT
HETATM    1  C   UNL     1      -8.246   8.366  65.341  1.00  0.00    -0.144 C  
HETATM    2  N   UNL     1      -8.077   8.804  66.726  1.00  0.00    -0.103 NA 
HETATM    3  C   UNL     1      -7.462  10.149  66.801  1.00  0.00    -0.104 C  
HETATM    4  C   UNL     1      -8.403  11.304  66.410  1.00  0.00    -0.159 C  
HETATM    5  N   UNL     1      -9.654  11.235  67.156  1.00  0.00    -0.176 N  
HETATM    6  C   UNL     1     -10.335   9.940  67.091  1.00  0.00    -0.243 C  
HETATM    7  C   UNL     1      -9.951  12.214  68.084  1.00  0.00    -0.201 C  
HETATM    8  O   UNL     1      -9.201  13.141  68.354  1.00  0.00    -0.198 OA 
HETATM    9  C   UNL     1      -9.362   8.799  67.465  1.00  0.00    -0.136 C  
ENDROOT
BRANCH   7  10
HETATM   10  O   UNL     1     -11.177  12.047  68.635  1.00  0.00    -0.218 OA 
BRANCH  10  11
HETATM   11  C   UNL     1     -12.154  13.020  68.268  1.00  0.00    -0.156 C  
HETATM   12  N   UNL     1     -11.759  14.304  68.824  1.00  0.00    -0.323 N  
HETATM   13  C   UNL     1     -11.405  15.226  67.847  1.00  0.00    -0.334 C  
HETATM   14  C   UNL     1     -11.998  13.252  66.783  1.00  0.00    -0.382 A  
HETATM   15  N   UNL     1     -12.209  12.364  65.783  1.00  0.00    -0.638 NA 
HETATM   16  C   UNL     1     -11.544  14.536  66.558  1.00  0.00    -0.371 A  
HETATM   17  O   UNL     1     -11.102  16.398  67.977  1.00  0.00    -0.348 OA 
HETATM   18  C   UNL     1     -11.941  12.861  64.548  1.00  0.00    -0.395 A  
HETATM   19  N   UNL     1     -11.282  15.052  65.341  1.00  0.00    -0.354 NA 
HETATM   20  C   UNL     1     -11.493  14.169  64.335  1.00  0.00    -0.332 A  
BRANCH  12  21
HETATM   21  C   UNL     1     -12.012  14.611  70.165  1.00  0.00    -0.313 A  
HETATM   22 CL   UNL     1     -12.473  15.655  74.483  1.00  0.00    -0.781 Cl 
HETATM   23  C   UNL     1     -12.834  14.033  72.352  1.00  0.00    -0.406 A  
HETATM   24  C   UNL     1     -11.728  16.091  71.924  1.00  0.00    -0.504 A  
HETATM   25  N   UNL     1     -11.586  15.814  70.604  1.00  0.00    -0.357 NA 
HETATM   26  C   UNL     1     -12.651  13.704  71.006  1.00  0.00    -0.441 A  
HETATM   27  C   UNL     1     -12.339  15.239  72.826  1.00  0.00    -0.396 A  
ENDBRANCH  12  21
ENDBRANCH  10  11
ENDBRANCH   7  10
TORSDOF 3
ENDMDL
MODEL       60
REMARK 921   NORMALIZED FREE ENERGY PREDICTED BY IDOCK:   -5.31 KCAL/MOL
REMARK 922        TOTAL FREE ENERGY PREDICTED BY IDOCK:   -7.05 KCAL/MOL
REMARK 923 INTER-LIGAND FREE ENERGY PREDICTED BY IDOCK:   -6.18 KCAL/MOL
REMARK 924 INTRA-LIGAND FREE ENERGY PREDICTED BY IDOCK:   -0.87 KCAL/MOL
REMARK 927      BINDING AFFINITY PREDICTED BY RF-SCORE:    0.00 PKD
ROOT
HETATM    1  C   UNL     1     -10.532   5.911  73.437  1.00  0.00    -0.246 C  
HETATM    2  N   UNL     1     -11.269   6.139  72.194  1.00  0.00    -0.273 NA 
HETATM    3  C   UNL     1     -12.358   7.125  72.378  1.00  0.00     0.006 C  
HETATM    4  C   UNL     1     -11.883   8.583  72.520  1.00  0.00    -0.328 C  
HETATM    5  N   UNL     1     -10.995   8.952  71.424  1.00  0.00    -0.282 N  
HETATM    6  C   UNL     1      -9.871   8.037  71.213  1.00  0.00    -0.163 C  
HETATM    7  C   UNL     1     -11.405   9.893  70.500  1.00  0.00    -0.327 C  
HETATM    8  O   UNL     1     -12.505  10.428  70.520  1.00  0.00    -0.311 OA 
HETATM    9  C   UNL     1     -10.374   6.580  71.097  1.00  0.00    -0.205 C  
ENDROOT
BRANCH   7  10
HETATM   10  O   UNL     1     -10.441  10.179  69.592  1.00  0.00    -0.220 OA 
BRANCH  10  11
HETATM   11  C   UNL     1     -10.873  10.231  68.234  1.00  0.00    -0.255 C  
HETATM   12  N   UNL     1     -10.054  11.200  67.525  1.00  0.00    -0.181 N  
HETATM   13  C   UNL     1      -9.232  10.612  66.571  1.00  0.00    -0.166 C  
HETATM   14  C   UNL     1     -10.453   8.927  67.595  1.00  0.00    -0.255 A  
HETATM   15  N   UNL     1     -10.889   7.682  67.899  1.00  0.00    -0.100 NA 
HETATM   16  C   UNL     1      -9.484   9.167  66.642  1.00  0.00    -0.185 A  
HETATM   17  O   UNL     1      -8.489  11.148  65.769  1.00  0.00    -0.158 OA 
HETATM   18  C   UNL     1     -10.289   6.703  67.174  1.00  0.00    -0.252 A  
HETATM   19  N   UNL     1      -8.884   8.213  65.904  1.00  0.00    -0.162 NA 
HETATM   20  C   UNL     1      -9.317   6.963  66.203  1.00  0.00    -0.042 A  
BRANCH  12  21
HETATM   21  C   UNL     1     -10.320  12.569  67.623  1.00  0.00    -0.218 A  
HETATM   22 CL   UNL     1     -11.014  16.936  68.255  1.00  0.00    -0.349 Cl 
HETATM   23  C   UNL     1     -11.837  14.437  67.637  1.00  0.00    -0.412 A  
HETATM   24  C   UNL     1      -9.519  14.692  68.089  1.00  0.00    -0.212 A  
HETATM   25  N   UNL     1      -9.270  13.375  67.888  1.00  0.00    -0.207 NA 
HETATM   26  C   UNL     1     -11.611  13.068  67.477  1.00  0.00    -0.405 A  
HETATM   27  C   UNL     1     -10.774  15.262  67.976  1.00  0.00    -0.268 A  
ENDBRANCH  12  21
ENDBRANCH  10  11
ENDBRANCH   7  10
TORSDOF 3
ENDMDL
MODEL       61
REMARK 921   NORMALIZED FREE ENERGY PREDICTED BY IDOCK:   -5.30 KCAL/MOL
REMARK 922        TOTAL FREE ENERGY PREDICTED BY IDOCK:   -7.03 KCAL/MOL
REMARK 923 INTER-LIGAND FREE ENERGY PREDICTED BY IDOCK:   -6.03 KCAL/MOL
REMARK 924 INTRA-LIGAND FREE ENERGY PREDICTED BY IDOCK:   -1.00 KCAL/MOL
REMARK 927      BINDING AFFINITY PREDICTED BY RF-SCORE:    0.00 PKD
ROOT
HETATM    1  C   UNL     1     -10.304  18.270  67.776  1.00  0.00    -0.401 C  
HETATM    2  N   UNL     1      -8.979  17.780  67.399  1.00  0.00    -0.239 NA 
HETATM    3  C   UNL     1      -8.212  17.317  68.579  1.00  0.00    -0.267 C  
HETATM    4  C   UNL     1      -8.689  15.975  69.163  1.00  0.00    -0.248 C  
HETATM    5  N   UNL     1      -8.764  14.950  68.127  1.00  0.00    -0.159 N  
HETATM    6  C   UNL     1      -9.543  15.331  66.947  1.00  0.00    -0.233 C  
HETATM    7  C   UNL     1      -7.895  13.878  68.163  1.00  0.00    -0.147 C  
HETATM    8  O   UNL     1      -7.021  13.742  69.007  1.00  0.00    -0.109 OA 
HETATM    9  C   UNL     1      -9.059  16.692  66.396  1.00  0.00    -0.292 C  
ENDROOT
BRANCH   7  10
HETATM   10  O   UNL     1      -8.142  12.982  67.177  1.00  0.00    -0.171 OA 
BRANCH  10  11
HETATM   11  C   UNL     1      -7.869  11.620  67.503  1.00  0.00    -0.137 C  
HETATM   12  N   UNL     1      -9.101  10.858  67.376  1.00  0.00    -0.140 N  
HETATM   13  C   UNL     1      -9.062   9.947  66.328  1.00  0.00    -0.155 C  
HETATM   14  C   UNL     1      -7.030  11.064  66.376  1.00  0.00    -0.122 A  
HETATM   15  N   UNL     1      -5.781  11.441  66.016  1.00  0.00    -0.185 NA 
HETATM   16  C   UNL     1      -7.747  10.104  65.692  1.00  0.00    -0.143 A  
HETATM   17  O   UNL     1      -9.894   9.118  66.006  1.00  0.00    -0.277 OA 
HETATM   18  C   UNL     1      -5.306  10.780  64.928  1.00  0.00    -0.107 A  
HETATM   19  N   UNL     1      -7.292   9.429  64.619  1.00  0.00    -0.101 NA 
HETATM   20  C   UNL     1      -6.041   9.801  64.252  1.00  0.00    -0.113 A  
BRANCH  12  21
HETATM   21  C   UNL     1     -10.058  10.871  68.395  1.00  0.00    -0.183 A  
HETATM   22 CL   UNL     1     -13.041  11.257  71.698  1.00  0.00    -0.557 Cl 
HETATM   23  C   UNL     1     -10.942  10.064  70.483  1.00  0.00    -0.392 A  
HETATM   24  C   UNL     1     -11.908  11.904  69.333  1.00  0.00    -0.327 A  
HETATM   25  N   UNL     1     -11.029  11.806  68.306  1.00  0.00    -0.214 NA 
HETATM   26  C   UNL     1      -9.994   9.978  69.461  1.00  0.00    -0.249 A  
HETATM   27  C   UNL     1     -11.902  11.064  70.432  1.00  0.00    -0.367 A  
ENDBRANCH  12  21
ENDBRANCH  10  11
ENDBRANCH   7  10
TORSDOF 3
ENDMDL
MODEL       62
REMARK 921   NORMALIZED FREE ENERGY PREDICTED BY IDOCK:   -5.30 KCAL/MOL
REMARK 922        TOTAL FREE ENERGY PREDICTED BY IDOCK:   -7.03 KCAL/MOL
REMARK 923 INTER-LIGAND FREE ENERGY PREDICTED BY IDOCK:   -5.94 KCAL/MOL
REMARK 924 INTRA-LIGAND FREE ENERGY PREDICTED BY IDOCK:   -1.09 KCAL/MOL
REMARK 927      BINDING AFFINITY PREDICTED BY RF-SCORE:    0.00 PKD
ROOT
HETATM    1  C   UNL     1     -10.784   6.812  73.507  1.00  0.00    -0.292 C  
HETATM    2  N   UNL     1      -9.788   6.821  72.437  1.00  0.00    -0.158 NA 
HETATM    3  C   UNL     1     -10.345   6.301  71.167  1.00  0.00    -0.209 C  
HETATM    4  C   UNL     1     -11.314   7.262  70.454  1.00  0.00    -0.271 C  
HETATM    5  N   UNL     1     -10.712   8.581  70.285  1.00  0.00    -0.228 N  
HETATM    6  C   UNL     1     -10.175   9.170  71.514  1.00  0.00    -0.333 C  
HETATM    7  C   UNL     1     -10.408   9.035  69.017  1.00  0.00    -0.219 C  
HETATM    8  O   UNL     1     -10.582   8.376  68.001  1.00  0.00    -0.204 OA 
HETATM    9  C   UNL     1      -9.225   8.175  72.219  1.00  0.00    -0.201 C  
ENDROOT
BRANCH   7  10
HETATM   10  O   UNL     1      -9.926  10.301  69.025  1.00  0.00    -0.191 OA 
BRANCH  10  11
HETATM   11  C   UNL     1      -8.829  10.546  68.146  1.00  0.00    -0.134 C  
HETATM   12  N   UNL     1      -9.065  11.799  67.450  1.00  0.00    -0.171 N  
HETATM   13  C   UNL     1      -8.165  12.793  67.815  1.00  0.00    -0.176 C  
HETATM   14  C   UNL     1      -7.642  10.881  69.019  1.00  0.00    -0.135 A  
HETATM   15  N   UNL     1      -7.016  10.073  69.906  1.00  0.00    -0.100 NA 
HETATM   16  C   UNL     1      -7.280  12.199  68.826  1.00  0.00    -0.103 A  
HETATM   17  O   UNL     1      -8.048  13.919  67.367  1.00  0.00    -0.170 OA 
HETATM   18  C   UNL     1      -6.002  10.680  70.574  1.00  0.00    -0.121 A  
HETATM   19  N   UNL     1      -6.271  12.818  69.469  1.00  0.00    -0.116 NA 
HETATM   20  C   UNL     1      -5.639  12.013  70.359  1.00  0.00    -0.160 A  
BRANCH  12  21
HETATM   21  C   UNL     1      -9.915  11.853  66.341  1.00  0.00    -0.213 A  
HETATM   22 CL   UNL     1     -12.894  11.908  63.012  1.00  0.00    -0.300 Cl 
HETATM   23  C   UNL     1     -10.518  11.216  64.100  1.00  0.00    -0.442 A  
HETATM   24  C   UNL     1     -11.939  12.550  65.457  1.00  0.00    -0.442 A  
HETATM   25  N   UNL     1     -11.052  12.569  66.481  1.00  0.00    -0.274 NA 
HETATM   26  C   UNL     1      -9.612  11.178  65.162  1.00  0.00    -0.273 A  
HETATM   27  C   UNL     1     -11.718  11.894  64.260  1.00  0.00    -0.303 A  
ENDBRANCH  12  21
ENDBRANCH  10  11
ENDBRANCH   7  10
TORSDOF 3
ENDMDL
MODEL       63
REMARK 921   NORMALIZED FREE ENERGY PREDICTED BY IDOCK:   -5.27 KCAL/MOL
REMARK 922        TOTAL FREE ENERGY PREDICTED BY IDOCK:   -7.00 KCAL/MOL
REMARK 923 INTER-LIGAND FREE ENERGY PREDICTED BY IDOCK:   -6.14 KCAL/MOL
REMARK 924 INTRA-LIGAND FREE ENERGY PREDICTED BY IDOCK:   -0.86 KCAL/MOL
REMARK 927      BINDING AFFINITY PREDICTED BY RF-SCORE:    0.00 PKD
ROOT
HETATM    1  C   UNL     1     -12.761  12.012  63.340  1.00  0.00    -0.398 C  
HETATM    2  N   UNL     1     -12.360  11.906  64.742  1.00  0.00    -0.259 NA 
HETATM    3  C   UNL     1     -10.923  11.574  64.875  1.00  0.00    -0.254 C  
HETATM    4  C   UNL     1      -9.966  12.736  64.550  1.00  0.00    -0.149 C  
HETATM    5  N   UNL     1     -10.320  13.932  65.306  1.00  0.00    -0.361 N  
HETATM    6  C   UNL     1     -11.722  14.339  65.187  1.00  0.00    -0.368 C  
HETATM    7  C   UNL     1      -9.464  14.401  66.283  1.00  0.00    -0.271 C  
HETATM    8  O   UNL     1      -8.417  13.847  66.588  1.00  0.00    -0.056 OA 
HETATM    9  C   UNL     1     -12.658  13.148  65.495  1.00  0.00    -0.408 C  
ENDROOT
BRANCH   7  10
HETATM   10  O   UNL     1      -9.900  15.556  66.839  1.00  0.00    -0.230 OA 
BRANCH  10  11
HETATM   11  C   UNL     1      -9.256  15.933  68.056  1.00  0.00    -0.192 C  
HETATM   12  N   UNL     1      -9.256  17.384  68.149  1.00  0.00    -0.263 N  
HETATM   13  C   UNL     1     -10.063  17.855  69.177  1.00  0.00    -0.217 C  
HETATM   14  C   UNL     1     -10.187  15.539  69.179  1.00  0.00    -0.240 A  
HETATM   15  N   UNL     1     -10.571  14.290  69.531  1.00  0.00    -0.087 NA 
HETATM   16  C   UNL     1     -10.661  16.671  69.809  1.00  0.00    -0.227 A  
HETATM   17  O   UNL     1     -10.219  19.000  69.561  1.00  0.00    -0.084 OA 
HETATM   18  C   UNL     1     -11.455  14.263  70.562  1.00  0.00    -0.093 A  
HETATM   19  N   UNL     1     -11.528  16.667  70.840  1.00  0.00    -0.054 NA 
HETATM   20  C   UNL     1     -11.917  15.419  71.199  1.00  0.00    -0.362 A  
BRANCH  12  21
HETATM   21  C   UNL     1      -8.310  18.145  67.456  1.00  0.00    -0.237 A  
HETATM   22 CL   UNL     1      -5.444  20.473  64.941  1.00  0.00    -0.213 Cl 
HETATM   23  C   UNL     1      -6.037  18.696  66.890  1.00  0.00    -0.174 A  
HETATM   24  C   UNL     1      -7.888  19.734  65.824  1.00  0.00    -0.223 A  
HETATM   25  N   UNL     1      -8.786  19.057  66.581  1.00  0.00    -0.300 NA 
HETATM   26  C   UNL     1      -6.945  17.949  67.645  1.00  0.00    -0.204 A  
HETATM   27  C   UNL     1      -6.518  19.588  65.942  1.00  0.00    -0.215 A  
ENDBRANCH  12  21
ENDBRANCH  10  11
ENDBRANCH   7  10
TORSDOF 3
ENDMDL
MODEL       64
REMARK 921   NORMALIZED FREE ENERGY PREDICTED BY IDOCK:   -5.22 KCAL/MOL
REMARK 922        TOTAL FREE ENERGY PREDICTED BY IDOCK:   -6.95 KCAL/MOL
REMARK 923 INTER-LIGAND FREE ENERGY PREDICTED BY IDOCK:   -6.74 KCAL/MOL
REMARK 924 INTRA-LIGAND FREE ENERGY PREDICTED BY IDOCK:   -0.21 KCAL/MOL
REMARK 927      BINDING AFFINITY PREDICTED BY RF-SCORE:    0.00 PKD
ROOT
HETATM    1  C   UNL     1      -7.708   8.112  72.666  1.00  0.00    -0.132 C  
HETATM    2  N   UNL     1      -7.352   7.979  71.254  1.00  0.00    -0.063 NA 
HETATM    3  C   UNL     1      -8.290   7.087  70.536  1.00  0.00    -0.132 C  
HETATM    4  C   UNL     1      -9.676   7.702  70.266  1.00  0.00    -0.179 C  
HETATM    5  N   UNL     1      -9.554   9.001  69.614  1.00  0.00    -0.167 N  
HETATM    6  C   UNL     1      -8.667   9.947  70.297  1.00  0.00    -0.027 C  
HETATM    7  C   UNL     1      -9.986   9.155  68.312  1.00  0.00    -0.175 C  
HETATM    8  O   UNL     1     -10.447   8.244  67.639  1.00  0.00    -0.239 OA 
HETATM    9  C   UNL     1      -7.294   9.296  70.576  1.00  0.00    -0.116 C  
ENDROOT
BRANCH   7  10
HETATM   10  O   UNL     1      -9.872  10.434  67.879  1.00  0.00    -0.151 OA 
BRANCH  10  11
HETATM   11  C   UNL     1     -11.017  10.961  67.211  1.00  0.00    -0.294 C  
HETATM   12  N   UNL     1     -11.205  12.339  67.631  1.00  0.00    -0.271 N  
HETATM   13  C   UNL     1     -10.982  13.248  66.603  1.00  0.00    -0.283 C  
HETATM   14  C   UNL     1     -10.637  11.116  65.757  1.00  0.00    -0.227 A  
HETATM   15  N   UNL     1     -10.322  10.136  64.878  1.00  0.00    -0.118 NA 
HETATM   16  C   UNL     1     -10.605  12.455  65.425  1.00  0.00    -0.284 A  
HETATM   17  O   UNL     1     -11.125  14.457  66.609  1.00  0.00    -0.311 OA 
HETATM   18  C   UNL     1      -9.981  10.599  63.647  1.00  0.00    -0.301 A  
HETATM   19  N   UNL     1     -10.280  12.935  64.209  1.00  0.00    -0.361 NA 
HETATM   20  C   UNL     1      -9.964  11.959  63.323  1.00  0.00    -0.380 A  
BRANCH  12  21
HETATM   21  C   UNL     1     -11.824  12.639  68.848  1.00  0.00    -0.302 A  
HETATM   22 CL   UNL     1     -13.569  13.859  72.775  1.00  0.00    -0.591 Cl 
HETATM   23  C   UNL     1     -12.540  12.036  71.065  1.00  0.00    -0.370 A  
HETATM   24  C   UNL     1     -12.764  14.246  70.225  1.00  0.00    -0.249 A  
HETATM   25  N   UNL     1     -12.254  13.907  69.016  1.00  0.00    -0.318 NA 
HETATM   26  C   UNL     1     -11.964  11.676  69.845  1.00  0.00    -0.414 A  
HETATM   27  C   UNL     1     -12.924  13.353  71.269  1.00  0.00    -0.287 A  
ENDBRANCH  12  21
ENDBRANCH  10  11
ENDBRANCH   7  10
TORSDOF 3
ENDMDL
MODEL       65
REMARK 921   NORMALIZED FREE ENERGY PREDICTED BY IDOCK:   -5.22 KCAL/MOL
REMARK 922        TOTAL FREE ENERGY PREDICTED BY IDOCK:   -6.95 KCAL/MOL
REMARK 923 INTER-LIGAND FREE ENERGY PREDICTED BY IDOCK:   -7.07 KCAL/MOL
REMARK 924 INTRA-LIGAND FREE ENERGY PREDICTED BY IDOCK:    0.12 KCAL/MOL
REMARK 927      BINDING AFFINITY PREDICTED BY RF-SCORE:    0.00 PKD
ROOT
HETATM    1  C   UNL     1      -7.240  10.424  68.235  1.00  0.00    -0.083 C  
HETATM    2  N   UNL     1      -8.036  11.115  67.222  1.00  0.00    -0.131 NA 
HETATM    3  C   UNL     1      -9.486  10.898  67.426  1.00  0.00    -0.155 C  
HETATM    4  C   UNL     1     -10.087  11.669  68.616  1.00  0.00    -0.198 C  
HETATM    5  N   UNL     1      -9.754  13.088  68.540  1.00  0.00    -0.178 N  
HETATM    6  C   UNL     1      -8.327  13.374  68.377  1.00  0.00    -0.137 C  
HETATM    7  C   UNL     1     -10.755  14.013  68.315  1.00  0.00    -0.254 C  
HETATM    8  O   UNL     1     -11.927  13.713  68.136  1.00  0.00    -0.362 OA 
HETATM    9  C   UNL     1      -7.747  12.569  67.192  1.00  0.00    -0.108 C  
ENDROOT
BRANCH   7  10
HETATM   10  O   UNL     1     -10.296  15.287  68.346  1.00  0.00    -0.221 OA 
BRANCH  10  11
HETATM   11  C   UNL     1      -9.492  15.678  67.234  1.00  0.00    -0.216 C  
HETATM   12  N   UNL     1     -10.368  15.973  66.112  1.00  0.00    -0.313 N  
HETATM   13  C   UNL     1     -10.364  17.319  65.769  1.00  0.00    -0.234 C  
HETATM   14  C   UNL     1      -8.925  17.038  67.566  1.00  0.00    -0.219 A  
HETATM   15  N   UNL     1      -8.062  17.351  68.560  1.00  0.00    -0.263 NA 
HETATM   16  C   UNL     1      -9.457  17.984  66.714  1.00  0.00    -0.293 A  
HETATM   17  O   UNL     1     -10.926  17.872  64.841  1.00  0.00    -0.827 OA 
HETATM   18  C   UNL     1      -7.769  18.675  68.630  1.00  0.00    -0.317 A  
HETATM   19  N   UNL     1      -9.173  19.300  66.758  1.00  0.00    -0.308 NA 
HETATM   20  C   UNL     1      -8.307  19.621  67.752  1.00  0.00    -0.310 A  
BRANCH  12  21
HETATM   21  C   UNL     1     -10.892  14.944  65.324  1.00  0.00    -0.386 A  
HETATM   22 CL   UNL     1     -12.805  11.599  63.064  1.00  0.00    -0.167 Cl 
HETATM   23  C   UNL     1     -10.667  12.875  64.116  1.00  0.00    -0.443 A  
HETATM   24  C   UNL     1     -12.765  13.953  64.388  1.00  0.00    -0.013 A  
HETATM   25  N   UNL     1     -12.216  14.993  65.063  1.00  0.00    -0.157 NA 
HETATM   26  C   UNL     1     -10.088  13.909  64.855  1.00  0.00    -0.294 A  
HETATM   27  C   UNL     1     -12.037  12.883  63.901  1.00  0.00    -0.480 A  
ENDBRANCH  12  21
ENDBRANCH  10  11
ENDBRANCH   7  10
TORSDOF 3
ENDMDL
MODEL       66
REMARK 921   NORMALIZED FREE ENERGY PREDICTED BY IDOCK:   -5.21 KCAL/MOL
REMARK 922        TOTAL FREE ENERGY PREDICTED BY IDOCK:   -6.93 KCAL/MOL
REMARK 923 INTER-LIGAND FREE ENERGY PREDICTED BY IDOCK:   -6.15 KCAL/MOL
REMARK 924 INTRA-LIGAND FREE ENERGY PREDICTED BY IDOCK:   -0.78 KCAL/MOL
REMARK 927      BINDING AFFINITY PREDICTED BY RF-SCORE:    0.00 PKD
ROOT
HETATM    1  C   UNL     1      -5.201   6.560  65.264  1.00  0.00    -0.018 C  
HETATM    2  N   UNL     1      -5.255   7.892  64.664  1.00  0.00    -0.029 NA 
HETATM    3  C   UNL     1      -6.076   7.903  63.432  1.00  0.00    -0.063 C  
HETATM    4  C   UNL     1      -7.594   7.804  63.675  1.00  0.00    -0.126 C  
HETATM    5  N   UNL     1      -8.037   8.811  64.632  1.00  0.00    -0.149 N  
HETATM    6  C   UNL     1      -7.289   8.829  65.892  1.00  0.00    -0.085 C  
HETATM    7  C   UNL     1      -8.860   9.837  64.212  1.00  0.00    -0.228 C  
HETATM    8  O   UNL     1      -9.226   9.982  63.054  1.00  0.00    -0.262 OA 
HETATM    9  C   UNL     1      -5.770   8.904  65.618  1.00  0.00    -0.050 C  
ENDROOT
BRANCH   7  10
HETATM   10  O   UNL     1      -9.240  10.644  65.232  1.00  0.00    -0.178 OA 
BRANCH  10  11
HETATM   11  C   UNL     1     -10.627  10.599  65.567  1.00  0.00    -0.110 C  
HETATM   12  N   UNL     1     -10.751  10.496  67.012  1.00  0.00    -0.264 N  
HETATM   13  C   UNL     1     -11.306  11.633  67.584  1.00  0.00    -0.295 C  
HETATM   14  C   UNL     1     -11.183  11.976  65.293  1.00  0.00    -0.322 A  
HETATM   15  N   UNL     1     -11.283  12.602  64.098  1.00  0.00    -0.358 NA 
HETATM   16  C   UNL     1     -11.558  12.571  66.481  1.00  0.00    -0.388 A  
HETATM   17  O   UNL     1     -11.607  11.834  68.746  1.00  0.00    -0.255 OA 
HETATM   18  C   UNL     1     -11.791  13.859  64.182  1.00  0.00    -0.385 A  
HETATM   19  N   UNL     1     -12.073  13.811  66.587  1.00  0.00    -0.428 NA 
HETATM   20  C   UNL     1     -12.177  14.444  65.393  1.00  0.00    -0.361 A  
BRANCH  12  21
HETATM   21  C   UNL     1     -10.593   9.266  67.658  1.00  0.00    -0.261 A  
HETATM   22 CL   UNL     1     -10.404   5.243  69.590  1.00  0.00    -0.348 Cl 
HETATM   23  C   UNL     1     -10.253   7.941  69.637  1.00  0.00    -0.207 A  
HETATM   24  C   UNL     1     -10.664   6.955  67.517  1.00  0.00    -0.298 A  
HETATM   25  N   UNL     1     -10.712   8.159  66.895  1.00  0.00    -0.248 NA 
HETATM   26  C   UNL     1     -10.350   9.193  69.027  1.00  0.00    -0.229 A  
HETATM   27  C   UNL     1     -10.440   6.799  68.872  1.00  0.00    -0.207 A  
ENDBRANCH  12  21
ENDBRANCH  10  11
ENDBRANCH   7  10
TORSDOF 3
ENDMDL
MODEL       67
REMARK 921   NORMALIZED FREE ENERGY PREDICTED BY IDOCK:   -5.21 KCAL/MOL
REMARK 922        TOTAL FREE ENERGY PREDICTED BY IDOCK:   -6.93 KCAL/MOL
REMARK 923 INTER-LIGAND FREE ENERGY PREDICTED BY IDOCK:   -6.14 KCAL/MOL
REMARK 924 INTRA-LIGAND FREE ENERGY PREDICTED BY IDOCK:   -0.79 KCAL/MOL
REMARK 927      BINDING AFFINITY PREDICTED BY RF-SCORE:    0.00 PKD
ROOT
HETATM    1  C   UNL     1      -5.400   7.890  69.462  1.00  0.00    -0.023 C  
HETATM    2  N   UNL     1      -5.642   9.030  68.578  1.00  0.00    -0.037 NA 
HETATM    3  C   UNL     1      -6.539   8.669  67.456  1.00  0.00    -0.058 C  
HETATM    4  C   UNL     1      -8.017   8.491  67.851  1.00  0.00    -0.108 C  
HETATM    5  N   UNL     1      -8.505   9.653  68.586  1.00  0.00    -0.117 N  
HETATM    6  C   UNL     1      -7.683  10.039  69.735  1.00  0.00    -0.168 C  
HETATM    7  C   UNL     1      -9.464  10.468  68.017  1.00  0.00    -0.148 C  
HETATM    8  O   UNL     1      -9.919  10.297  66.895  1.00  0.00    -0.191 OA 
HETATM    9  C   UNL     1      -6.203  10.188  69.315  1.00  0.00    -0.044 C  
ENDROOT
BRANCH   7  10
HETATM   10  O   UNL     1      -9.863  11.455  68.854  1.00  0.00    -0.191 OA 
BRANCH  10  11
HETATM   11  C   UNL     1     -11.258  11.752  68.832  1.00  0.00    -0.253 C  
HETATM   12  N   UNL     1     -11.774  11.656  70.188  1.00  0.00    -0.321 N  
HETATM   13  C   UNL     1     -12.172  12.884  70.698  1.00  0.00    -0.302 C  
HETATM   14  C   UNL     1     -11.383  13.231  68.545  1.00  0.00    -0.284 A  
HETATM   15  N   UNL     1     -11.018  13.885  67.418  1.00  0.00    -0.284 NA 
HETATM   16  C   UNL     1     -11.900  13.877  69.649  1.00  0.00    -0.327 A  
HETATM   17  O   UNL     1     -12.708  13.131  71.763  1.00  0.00    -0.262 OA 
HETATM   18  C   UNL     1     -11.217  15.227  67.480  1.00  0.00    -0.317 A  
HETATM   19  N   UNL     1     -12.116  15.204  69.728  1.00  0.00    -0.322 NA 
HETATM   20  C   UNL     1     -11.753  15.866  68.602  1.00  0.00    -0.322 A  
BRANCH  12  21
HETATM   21  C   UNL     1     -12.085  10.413  70.748  1.00  0.00    -0.364 A  
HETATM   22 CL   UNL     1     -12.892   6.293  72.275  1.00  0.00    -0.031 Cl 
HETATM   23  C   UNL     1     -13.669   8.762  71.493  1.00  0.00    -0.384 A  
HETATM   24  C   UNL     1     -11.331   8.346  71.473  1.00  0.00    -0.276 A  
HETATM   25  N   UNL     1     -11.048   9.594  71.026  1.00  0.00    -0.342 NA 
HETATM   26  C   UNL     1     -13.404  10.034  70.982  1.00  0.00    -0.334 A  
HETATM   27  C   UNL     1     -12.613   7.890  71.718  1.00  0.00    -0.328 A  
ENDBRANCH  12  21
ENDBRANCH  10  11
ENDBRANCH   7  10
TORSDOF 3
ENDMDL
MODEL       68
REMARK 921   NORMALIZED FREE ENERGY PREDICTED BY IDOCK:   -5.19 KCAL/MOL
REMARK 922        TOTAL FREE ENERGY PREDICTED BY IDOCK:   -6.91 KCAL/MOL
REMARK 923 INTER-LIGAND FREE ENERGY PREDICTED BY IDOCK:   -6.73 KCAL/MOL
REMARK 924 INTRA-LIGAND FREE ENERGY PREDICTED BY IDOCK:   -0.17 KCAL/MOL
REMARK 927      BINDING AFFINITY PREDICTED BY RF-SCORE:    0.00 PKD
ROOT
HETATM    1  C   UNL     1      -5.660   8.980  65.912  1.00  0.00    -0.045 C  
HETATM    2  N   UNL     1      -7.089   9.076  65.614  1.00  0.00    -0.080 NA 
HETATM    3  C   UNL     1      -7.896   8.250  66.540  1.00  0.00    -0.093 C  
HETATM    4  C   UNL     1      -8.019   8.823  67.965  1.00  0.00    -0.106 C  
HETATM    5  N   UNL     1      -8.474  10.209  67.934  1.00  0.00    -0.117 N  
HETATM    6  C   UNL     1      -7.692  11.090  67.064  1.00  0.00    -0.134 C  
HETATM    7  C   UNL     1      -9.722  10.529  68.432  1.00  0.00    -0.159 C  
HETATM    8  O   UNL     1     -10.505   9.704  68.879  1.00  0.00    -0.203 OA 
HETATM    9  C   UNL     1      -7.565  10.479  65.649  1.00  0.00    -0.134 C  
ENDROOT
BRANCH   7  10
HETATM   10  O   UNL     1      -9.963  11.862  68.398  1.00  0.00    -0.197 OA 
BRANCH  10  11
HETATM   11  C   UNL     1     -11.230  12.243  67.863  1.00  0.00    -0.274 C  
HETATM   12  N   UNL     1     -11.428  13.661  68.112  1.00  0.00    -0.292 N  
HETATM   13  C   UNL     1     -11.427  14.415  66.945  1.00  0.00    -0.366 C  
HETATM   14  C   UNL     1     -11.097  12.195  66.359  1.00  0.00    -0.314 A  
HETATM   15  N   UNL     1     -10.869  11.108  65.586  1.00  0.00    -0.189 NA 
HETATM   16  C   UNL     1     -11.197  13.471  65.843  1.00  0.00    -0.300 A  
HETATM   17  O   UNL     1     -11.639  15.606  66.805  1.00  0.00    -0.000 OA 
HETATM   18  C   UNL     1     -10.758  11.395  64.263  1.00  0.00    -0.356 A  
HETATM   19  N   UNL     1     -11.101  13.777  64.534  1.00  0.00    -0.385 NA 
HETATM   20  C   UNL     1     -10.873  12.692  63.753  1.00  0.00    -0.426 A  
BRANCH  12  21
HETATM   21  C   UNL     1     -11.861  14.115  69.361  1.00  0.00    -0.330 A  
HETATM   22 CL   UNL     1     -13.546  15.389  73.298  1.00  0.00    -0.453 Cl 
HETATM   23  C   UNL     1     -12.370  15.882  70.914  1.00  0.00    -0.373 A  
HETATM   24  C   UNL     1     -12.800  13.601  71.416  1.00  0.00    -0.360 A  
HETATM   25  N   UNL     1     -12.280  13.177  70.237  1.00  0.00    -0.333 NA 
HETATM   26  C   UNL     1     -11.879  15.472  69.672  1.00  0.00    -0.384 A  
HETATM   27  C   UNL     1     -12.865  14.930  71.793  1.00  0.00    -0.330 A  
ENDBRANCH  12  21
ENDBRANCH  10  11
ENDBRANCH   7  10
TORSDOF 3
ENDMDL
MODEL       69
REMARK 921   NORMALIZED FREE ENERGY PREDICTED BY IDOCK:   -5.19 KCAL/MOL
REMARK 922        TOTAL FREE ENERGY PREDICTED BY IDOCK:   -6.91 KCAL/MOL
REMARK 923 INTER-LIGAND FREE ENERGY PREDICTED BY IDOCK:   -5.77 KCAL/MOL
REMARK 924 INTRA-LIGAND FREE ENERGY PREDICTED BY IDOCK:   -1.14 KCAL/MOL
REMARK 927      BINDING AFFINITY PREDICTED BY RF-SCORE:    0.00 PKD
ROOT
HETATM    1  C   UNL     1      -8.635   3.979  65.023  1.00  0.00    -0.115 C  
HETATM    2  N   UNL     1      -9.610   3.840  66.104  1.00  0.00    -0.182 NA 
HETATM    3  C   UNL     1      -8.950   3.769  67.428  1.00  0.00    -0.139 C  
HETATM    4  C   UNL     1      -8.383   5.110  67.931  1.00  0.00    -0.097 C  
HETATM    5  N   UNL     1      -9.397   6.158  67.883  1.00  0.00    -0.115 N  
HETATM    6  C   UNL     1     -10.063   6.306  66.587  1.00  0.00    -0.155 C  
HETATM    7  C   UNL     1      -9.876   6.699  69.061  1.00  0.00    -0.144 C  
HETATM    8  O   UNL     1      -9.522   6.326  70.170  1.00  0.00    -0.158 OA 
HETATM    9  C   UNL     1     -10.601   4.943  66.096  1.00  0.00    -0.271 C  
ENDROOT
BRANCH   7  10
HETATM   10  O   UNL     1     -10.754   7.707  68.845  1.00  0.00    -0.188 OA 
BRANCH  10  11
HETATM   11  C   UNL     1     -10.335   8.994  69.296  1.00  0.00    -0.219 C  
HETATM   12  N   UNL     1     -10.573   9.957  68.234  1.00  0.00    -0.216 N  
HETATM   13  C   UNL     1     -11.566  10.875  68.556  1.00  0.00    -0.290 C  
HETATM   14  C   UNL     1     -11.326   9.427  70.352  1.00  0.00    -0.248 A  
HETATM   15  N   UNL     1     -11.551   8.852  71.556  1.00  0.00    -0.293 NA 
HETATM   16  C   UNL     1     -12.046  10.512  69.896  1.00  0.00    -0.245 A  
HETATM   17  O   UNL     1     -11.946  11.841  67.921  1.00  0.00    -0.575 OA 
HETATM   18  C   UNL     1     -12.541   9.450  72.267  1.00  0.00    -0.306 A  
HETATM   19  N   UNL     1     -13.024  11.127  70.589  1.00  0.00    -0.164 NA 
HETATM   20  C   UNL     1     -13.254  10.557  71.797  1.00  0.00    -0.417 A  
BRANCH  12  21
HETATM   21  C   UNL     1      -9.679  10.081  67.167  1.00  0.00    -0.174 A  
HETATM   22 CL   UNL     1      -6.896  10.142  63.673  1.00  0.00    -0.129 Cl 
HETATM   23  C   UNL     1      -7.489  10.538  66.280  1.00  0.00    -0.133 A  
HETATM   24  C   UNL     1      -9.274   9.787  64.905  1.00  0.00    -0.257 A  
HETATM   25  N   UNL     1     -10.150   9.773  65.940  1.00  0.00    -0.273 NA 
HETATM   26  C   UNL     1      -8.360  10.480  67.370  1.00  0.00    -0.121 A  
HETATM   27  C   UNL     1      -7.947  10.159  65.027  1.00  0.00    -0.146 A  
ENDBRANCH  12  21
ENDBRANCH  10  11
ENDBRANCH   7  10
TORSDOF 3
ENDMDL
MODEL       70
REMARK 921   NORMALIZED FREE ENERGY PREDICTED BY IDOCK:   -5.17 KCAL/MOL
REMARK 922        TOTAL FREE ENERGY PREDICTED BY IDOCK:   -6.88 KCAL/MOL
REMARK 923 INTER-LIGAND FREE ENERGY PREDICTED BY IDOCK:   -5.84 KCAL/MOL
REMARK 924 INTRA-LIGAND FREE ENERGY PREDICTED BY IDOCK:   -1.05 KCAL/MOL
REMARK 927      BINDING AFFINITY PREDICTED BY RF-SCORE:    0.00 PKD
ROOT
HETATM    1  C   UNL     1     -12.285  14.754  64.422  1.00  0.00    -0.428 C  
HETATM    2  N   UNL     1     -12.648  13.337  64.423  1.00  0.00    -0.649 NA 
HETATM    3  C   UNL     1     -11.829  12.563  63.463  1.00  0.00    -0.534 C  
HETATM    4  C   UNL     1     -10.373  12.328  63.909  1.00  0.00    -0.429 C  
HETATM    5  N   UNL     1     -10.324  11.758  65.251  1.00  0.00    -0.262 N  
HETATM    6  C   UNL     1     -11.084  12.499  66.259  1.00  0.00    -0.295 C  
HETATM    7  C   UNL     1      -9.867  10.466  65.427  1.00  0.00    -0.283 C  
HETATM    8  O   UNL     1      -9.524   9.737  64.507  1.00  0.00    -0.282 OA 
HETATM    9  C   UNL     1     -12.532  12.740  65.775  1.00  0.00    -0.184 C  
ENDROOT
BRANCH   7  10
HETATM   10  O   UNL     1      -9.813  10.113  66.734  1.00  0.00    -0.179 OA 
BRANCH  10  11
HETATM   11  C   UNL     1      -8.548   9.636  67.189  1.00  0.00    -0.132 C  
HETATM   12  N   UNL     1      -8.143  10.425  68.340  1.00  0.00    -0.108 N  
HETATM   13  C   UNL     1      -8.126   9.687  69.517  1.00  0.00    -0.129 C  
HETATM   14  C   UNL     1      -8.792   8.276  67.801  1.00  0.00    -0.137 A  
HETATM   15  N   UNL     1      -9.219   7.155  67.175  1.00  0.00    -0.130 NA 
HETATM   16  C   UNL     1      -8.558   8.329  69.161  1.00  0.00    -0.138 A  
HETATM   17  O   UNL     1      -7.766  10.031  70.628  1.00  0.00    -0.268 OA 
HETATM   18  C   UNL     1      -9.385   6.096  68.009  1.00  0.00    -0.114 A  
HETATM   19  N   UNL     1      -8.706   7.290  70.004  1.00  0.00    -0.140 NA 
HETATM   20  C   UNL     1      -9.132   6.162  69.383  1.00  0.00    -0.134 A  
BRANCH  12  21
HETATM   21  C   UNL     1      -7.566  11.688  68.174  1.00  0.00    -0.115 A  
HETATM   22 CL   UNL     1      -5.482  15.629  67.890  1.00  0.00    -0.137 Cl 
HETATM   23  C   UNL     1      -7.683  14.091  68.199  1.00  0.00    -0.143 A  
HETATM   24  C   UNL     1      -5.644  12.933  67.826  1.00  0.00    -0.130 A  
HETATM   25  N   UNL     1      -6.246  11.720  67.890  1.00  0.00    -0.049 NA 
HETATM   26  C   UNL     1      -8.315  12.852  68.321  1.00  0.00    -0.157 A  
HETATM   27  C   UNL     1      -6.315  14.133  67.973  1.00  0.00    -0.149 A  
ENDBRANCH  12  21
ENDBRANCH  10  11
ENDBRANCH   7  10
TORSDOF 3
ENDMDL
MODEL       71
REMARK 921   NORMALIZED FREE ENERGY PREDICTED BY IDOCK:   -5.15 KCAL/MOL
REMARK 922        TOTAL FREE ENERGY PREDICTED BY IDOCK:   -6.86 KCAL/MOL
REMARK 923 INTER-LIGAND FREE ENERGY PREDICTED BY IDOCK:   -5.88 KCAL/MOL
REMARK 924 INTRA-LIGAND FREE ENERGY PREDICTED BY IDOCK:   -0.98 KCAL/MOL
REMARK 927      BINDING AFFINITY PREDICTED BY RF-SCORE:    0.00 PKD
ROOT
HETATM    1  C   UNL     1     -12.642  14.684  64.216  1.00  0.00    -0.076 C  
HETATM    2  N   UNL     1     -12.662  13.642  65.241  1.00  0.00    -0.664 NA 
HETATM    3  C   UNL     1     -11.926  12.433  64.805  1.00  0.00    -0.398 C  
HETATM    4  C   UNL     1     -10.394  12.586  64.800  1.00  0.00    -0.307 C  
HETATM    5  N   UNL     1      -9.913  13.081  66.086  1.00  0.00    -0.275 N  
HETATM    6  C   UNL     1     -10.575  14.300  66.557  1.00  0.00    -0.286 C  
HETATM    7  C   UNL     1      -9.146  12.262  66.890  1.00  0.00    -0.208 C  
HETATM    8  O   UNL     1      -8.863  11.107  66.606  1.00  0.00    -0.156 OA 
HETATM    9  C   UNL     1     -12.111  14.127  66.529  1.00  0.00    -0.454 C  
ENDROOT
BRANCH   7  10
HETATM   10  O   UNL     1      -8.720  12.892  68.010  1.00  0.00    -0.174 OA 
BRANCH  10  11
HETATM   11  C   UNL     1      -7.347  13.284  68.010  1.00  0.00    -0.127 C  
HETATM   12  N   UNL     1      -7.222  14.533  68.742  1.00  0.00    -0.119 N  
HETATM   13  C   UNL     1      -6.518  14.390  69.931  1.00  0.00    -0.152 C  
HETATM   14  C   UNL     1      -6.619  12.311  68.908  1.00  0.00    -0.094 A  
HETATM   15  N   UNL     1      -6.451  10.981  68.719  1.00  0.00    -0.048 NA 
HETATM   16  C   UNL     1      -6.158  12.969  70.030  1.00  0.00    -0.112 A  
HETATM   17  O   UNL     1      -6.181  15.248  70.726  1.00  0.00     0.019 OA 
HETATM   18  C   UNL     1      -5.784  10.368  69.730  1.00  0.00    -0.046 A  
HETATM   19  N   UNL     1      -5.485  12.383  71.039  1.00  0.00    -0.295 NA 
HETATM   20  C   UNL     1      -5.312  11.051  70.855  1.00  0.00    -0.118 A  
BRANCH  12  21
HETATM   21  C   UNL     1      -7.532  15.753  68.133  1.00  0.00    -0.124 A  
HETATM   22 CL   UNL     1      -8.850  19.526  66.137  1.00  0.00    -0.368 Cl 
HETATM   23  C   UNL     1      -7.169  17.432  66.447  1.00  0.00    -0.333 A  
HETATM   24  C   UNL     1      -8.977  17.557  67.982  1.00  0.00    -0.258 A  
HETATM   25  N   UNL     1      -8.597  16.424  68.622  1.00  0.00    -0.225 NA 
HETATM   26  C   UNL     1      -6.790  16.235  67.058  1.00  0.00    -0.235 A  
HETATM   27  C   UNL     1      -8.301  18.093  66.901  1.00  0.00    -0.245 A  
ENDBRANCH  12  21
ENDBRANCH  10  11
ENDBRANCH   7  10
TORSDOF 3
ENDMDL
MODEL       72
REMARK 921   NORMALIZED FREE ENERGY PREDICTED BY IDOCK:   -5.14 KCAL/MOL
REMARK 922        TOTAL FREE ENERGY PREDICTED BY IDOCK:   -6.85 KCAL/MOL
REMARK 923 INTER-LIGAND FREE ENERGY PREDICTED BY IDOCK:   -6.63 KCAL/MOL
REMARK 924 INTRA-LIGAND FREE ENERGY PREDICTED BY IDOCK:   -0.21 KCAL/MOL
REMARK 927      BINDING AFFINITY PREDICTED BY RF-SCORE:    0.00 PKD
ROOT
HETATM    1  C   UNL     1      -8.273   6.269  68.091  1.00  0.00    -0.115 C  
HETATM    2  N   UNL     1      -7.778   7.310  67.191  1.00  0.00    -0.110 NA 
HETATM    3  C   UNL     1      -8.644   7.458  65.999  1.00  0.00    -0.151 C  
HETATM    4  C   UNL     1      -9.993   8.148  66.272  1.00  0.00    -0.077 C  
HETATM    5  N   UNL     1      -9.801   9.417  66.965  1.00  0.00    -0.187 N  
HETATM    6  C   UNL     1      -8.983   9.333  68.178  1.00  0.00    -0.128 C  
HETATM    7  C   UNL     1     -10.101  10.600  66.320  1.00  0.00    -0.235 C  
HETATM    8  O   UNL     1     -10.496  10.661  65.164  1.00  0.00    -0.280 OA 
HETATM    9  C   UNL     1      -7.647   8.616  67.880  1.00  0.00    -0.098 C  
ENDROOT
BRANCH   7  10
HETATM   10  O   UNL     1      -9.939  11.680  67.122  1.00  0.00    -0.197 OA 
BRANCH  10  11
HETATM   11  C   UNL     1     -11.121  12.434  67.384  1.00  0.00    -0.272 C  
HETATM   12  N   UNL     1     -11.139  12.793  68.792  1.00  0.00    -0.249 N  
HETATM   13  C   UNL     1     -10.992  14.159  68.999  1.00  0.00    -0.261 C  
HETATM   14  C   UNL     1     -10.937  13.775  66.712  1.00  0.00    -0.304 A  
HETATM   15  N   UNL     1     -10.826  14.026  65.387  1.00  0.00    -0.313 NA 
HETATM   16  C   UNL     1     -10.846  14.766  67.669  1.00  0.00    -0.285 A  
HETATM   17  O   UNL     1     -11.037  14.781  70.044  1.00  0.00    -0.249 OA 
HETATM   18  C   UNL     1     -10.625  15.337  65.096  1.00  0.00    -0.430 A  
HETATM   19  N   UNL     1     -10.658  16.073  67.403  1.00  0.00    -0.313 NA 
HETATM   20  C   UNL     1     -10.546  16.331  66.076  1.00  0.00    -0.281 A  
BRANCH  12  21
HETATM   21  C   UNL     1     -11.556  11.873  69.759  1.00  0.00    -0.286 A  
HETATM   22 CL   UNL     1     -12.863   8.684  72.600  1.00  0.00    -0.358 Cl 
HETATM   23  C   UNL     1     -13.148  11.078  71.380  1.00  0.00    -0.441 A  
HETATM   24  C   UNL     1     -11.199   9.843  70.816  1.00  0.00    -0.353 A  
HETATM   25  N   UNL     1     -10.764  10.799  69.958  1.00  0.00    -0.167 NA 
HETATM   26  C   UNL     1     -12.745  12.051  70.461  1.00  0.00    -0.082 A  
HETATM   27  C   UNL     1     -12.373   9.939  71.541  1.00  0.00    -0.412 A  
ENDBRANCH  12  21
ENDBRANCH  10  11
ENDBRANCH   7  10
TORSDOF 3
ENDMDL
MODEL       73
REMARK 921   NORMALIZED FREE ENERGY PREDICTED BY IDOCK:   -5.11 KCAL/MOL
REMARK 922        TOTAL FREE ENERGY PREDICTED BY IDOCK:   -6.82 KCAL/MOL
REMARK 923 INTER-LIGAND FREE ENERGY PREDICTED BY IDOCK:   -6.65 KCAL/MOL
REMARK 924 INTRA-LIGAND FREE ENERGY PREDICTED BY IDOCK:   -0.17 KCAL/MOL
REMARK 927      BINDING AFFINITY PREDICTED BY RF-SCORE:    0.00 PKD
ROOT
HETATM    1  C   UNL     1     -10.202   6.175  74.346  1.00  0.00    -0.316 C  
HETATM    2  N   UNL     1      -9.484   5.875  73.108  1.00  0.00    -0.143 NA 
HETATM    3  C   UNL     1     -10.372   5.259  72.097  1.00  0.00    -0.212 C  
HETATM    4  C   UNL     1     -11.366   6.235  71.441  1.00  0.00    -0.296 C  
HETATM    5  N   UNL     1     -10.677   7.409  70.916  1.00  0.00    -0.232 N  
HETATM    6  C   UNL     1      -9.809   8.090  71.880  1.00  0.00    -0.191 C  
HETATM    7  C   UNL     1     -10.624   7.618  69.552  1.00  0.00    -0.227 C  
HETATM    8  O   UNL     1     -11.100   6.847  68.730  1.00  0.00    -0.185 OA 
HETATM    9  C   UNL     1      -8.839   7.083  72.539  1.00  0.00    -0.124 C  
ENDROOT
BRANCH   7  10
HETATM   10  O   UNL     1     -10.016   8.785  69.233  1.00  0.00    -0.183 OA 
BRANCH  10  11
HETATM   11  C   UNL     1     -10.650   9.548  68.208  1.00  0.00    -0.216 C  
HETATM   12  N   UNL     1     -10.540  10.958  68.545  1.00  0.00    -0.179 N  
HETATM   13  C   UNL     1      -9.720  11.656  67.669  1.00  0.00    -0.180 C  
HETATM   14  C   UNL     1      -9.774   9.441  66.982  1.00  0.00    -0.178 A  
HETATM   15  N   UNL     1      -9.494   8.329  66.263  1.00  0.00    -0.213 NA 
HETATM   16  C   UNL     1      -9.226  10.675  66.693  1.00  0.00    -0.164 A  
HETATM   17  O   UNL     1      -9.482  12.849  67.633  1.00  0.00    -0.185 OA 
HETATM   18  C   UNL     1      -8.634   8.549  65.234  1.00  0.00    -0.165 A  
HETATM   19  N   UNL     1      -8.381  10.917  65.672  1.00  0.00    -0.142 NA 
HETATM   20  C   UNL     1      -8.097   9.807  64.947  1.00  0.00    -0.140 A  
BRANCH  12  21
HETATM   21  C   UNL     1     -11.412  11.542  69.469  1.00  0.00    -0.311 A  
HETATM   22 CL   UNL     1     -13.938  13.641  72.498  1.00  0.00    -0.640 Cl 
HETATM   23  C   UNL     1     -12.829  11.428  71.411  1.00  0.00    -0.502 A  
HETATM   24  C   UNL     1     -12.385  13.476  70.294  1.00  0.00    -0.300 A  
HETATM   25  N   UNL     1     -11.625  12.870  69.348  1.00  0.00    -0.300 NA 
HETATM   26  C   UNL     1     -12.008  10.790  70.478  1.00  0.00    -0.456 A  
HETATM   27  C   UNL     1     -13.000  12.802  71.333  1.00  0.00    -0.266 A  
ENDBRANCH  12  21
ENDBRANCH  10  11
ENDBRANCH   7  10
TORSDOF 3
ENDMDL
MODEL       74
REMARK 921   NORMALIZED FREE ENERGY PREDICTED BY IDOCK:   -5.07 KCAL/MOL
REMARK 922        TOTAL FREE ENERGY PREDICTED BY IDOCK:   -6.77 KCAL/MOL
REMARK 923 INTER-LIGAND FREE ENERGY PREDICTED BY IDOCK:   -5.80 KCAL/MOL
REMARK 924 INTRA-LIGAND FREE ENERGY PREDICTED BY IDOCK:   -0.97 KCAL/MOL
REMARK 927      BINDING AFFINITY PREDICTED BY RF-SCORE:    0.00 PKD
ROOT
HETATM    1  C   UNL     1      -5.477  12.518  67.200  1.00  0.00     0.017 C  
HETATM    2  N   UNL     1      -5.833  13.581  68.139  1.00  0.00    -0.103 NA 
HETATM    3  C   UNL     1      -6.570  14.677  67.468  1.00  0.00    -0.087 C  
HETATM    4  C   UNL     1      -8.024  14.334  67.096  1.00  0.00    -0.101 C  
HETATM    5  N   UNL     1      -8.751  13.817  68.251  1.00  0.00    -0.177 N  
HETATM    6  C   UNL     1      -8.093  12.703  68.939  1.00  0.00     0.213 C  
HETATM    7  C   UNL     1      -9.783  14.555  68.795  1.00  0.00    -0.210 C  
HETATM    8  O   UNL     1     -10.116  15.658  68.385  1.00  0.00    -0.210 OA 
HETATM    9  C   UNL     1      -6.630  13.066  69.278  1.00  0.00    -0.089 C  
ENDROOT
BRANCH   7  10
HETATM   10  O   UNL     1     -10.401  13.906  69.811  1.00  0.00     0.299 OA 
BRANCH  10  11
HETATM   11  C   UNL     1     -11.706  13.409  69.518  1.00  0.00    -0.324 C  
HETATM   12  N   UNL     1     -11.773  12.016  69.929  1.00  0.00    -0.316 N  
HETATM   13  C   UNL     1     -12.634  11.814  71.000  1.00  0.00    -0.310 C  
HETATM   14  C   UNL     1     -12.653  14.077  70.488  1.00  0.00    -0.329 A  
HETATM   15  N   UNL     1     -12.952  15.394  70.573  1.00  0.00    -0.388 NA 
HETATM   16  C   UNL     1     -13.170  13.136  71.354  1.00  0.00    -0.207 A  
HETATM   17  O   UNL     1     -12.965  10.768  71.527  1.00  0.00    -0.407 OA 
HETATM   18  C   UNL     1     -13.810  15.692  71.582  1.00  0.00    -0.341 A  
HETATM   19  N   UNL     1     -14.031  13.408  72.355  1.00  0.00    -0.694 NA 
HETATM   20  C   UNL     1     -14.336  14.726  72.445  1.00  0.00    -0.296 A  
BRANCH  12  21
HETATM   21  C   UNL     1     -11.246  11.005  69.119  1.00  0.00    -0.255 A  
HETATM   22 CL   UNL     1      -9.882   7.749  66.382  1.00  0.00    -0.247 Cl 
HETATM   23  C   UNL     1     -10.169   8.874  68.823  1.00  0.00    -0.224 A  
HETATM   24  C   UNL     1     -10.973  10.146  66.986  1.00  0.00    -0.092 A  
HETATM   25  N   UNL     1     -11.384  11.161  67.785  1.00  0.00    -0.385 NA 
HETATM   26  C   UNL     1     -10.633   9.883  69.670  1.00  0.00    -0.273 A  
HETATM   27  C   UNL     1     -10.367   8.995  67.455  1.00  0.00    -0.264 A  
ENDBRANCH  12  21
ENDBRANCH  10  11
ENDBRANCH   7  10
TORSDOF 3
ENDMDL
MODEL       75
REMARK 921   NORMALIZED FREE ENERGY PREDICTED BY IDOCK:   -5.06 KCAL/MOL
REMARK 922        TOTAL FREE ENERGY PREDICTED BY IDOCK:   -6.75 KCAL/MOL
REMARK 923 INTER-LIGAND FREE ENERGY PREDICTED BY IDOCK:   -5.93 KCAL/MOL
REMARK 924 INTRA-LIGAND FREE ENERGY PREDICTED BY IDOCK:   -0.83 KCAL/MOL
REMARK 927      BINDING AFFINITY PREDICTED BY RF-SCORE:    0.00 PKD
ROOT
HETATM    1  C   UNL     1      -5.906  10.541  67.029  1.00  0.00    -0.052 C  
HETATM    2  N   UNL     1      -5.575   9.460  67.956  1.00  0.00    -0.037 NA 
HETATM    3  C   UNL     1      -5.259   9.977  69.307  1.00  0.00    -0.035 C  
HETATM    4  C   UNL     1      -6.481  10.467  70.106  1.00  0.00    -0.137 C  
HETATM    5  N   UNL     1      -7.524   9.447  70.143  1.00  0.00    -0.102 N  
HETATM    6  C   UNL     1      -7.911   8.920  68.833  1.00  0.00    -0.104 C  
HETATM    7  C   UNL     1      -7.841   8.838  71.342  1.00  0.00    -0.128 C  
HETATM    8  O   UNL     1      -7.269   9.078  72.396  1.00  0.00    -0.332 OA 
HETATM    9  C   UNL     1      -6.664   8.458  68.046  1.00  0.00    -0.065 C  
ENDROOT
BRANCH   7  10
HETATM   10  O   UNL     1      -8.875   7.972  71.222  1.00  0.00    -0.129 OA 
BRANCH  10  11
HETATM   11  C   UNL     1      -9.883   8.076  72.226  1.00  0.00    -0.236 C  
HETATM   12  N   UNL     1     -11.167   8.278  71.575  1.00  0.00    -0.251 N  
HETATM   13  C   UNL     1     -12.024   7.196  71.733  1.00  0.00    -0.313 C  
HETATM   14  C   UNL     1     -10.041   6.698  72.827  1.00  0.00    -0.177 A  
HETATM   15  N   UNL     1      -9.123   5.997  73.532  1.00  0.00    -0.131 NA 
HETATM   16  C   UNL     1     -11.287   6.195  72.514  1.00  0.00    -0.286 A  
HETATM   17  O   UNL     1     -13.182   7.082  71.376  1.00  0.00    -0.365 OA 
HETATM   18  C   UNL     1      -9.550   4.762  73.904  1.00  0.00    -0.129 A  
HETATM   19  N   UNL     1     -11.735   4.978  72.881  1.00  0.00    -0.204 NA 
HETATM   20  C   UNL     1     -10.821   4.270  73.589  1.00  0.00    -0.278 A  
BRANCH  12  21
HETATM   21  C   UNL     1     -11.545   9.544  71.117  1.00  0.00    -0.367 A  
HETATM   22 CL   UNL     1     -12.410  13.676  69.658  1.00  0.00    -0.311 Cl 
HETATM   23  C   UNL     1     -12.791  11.591  71.335  1.00  0.00    -0.489 A  
HETATM   24  C   UNL     1     -11.213  11.255  69.592  1.00  0.00    -0.251 A  
HETATM   25  N   UNL     1     -10.938   9.991  69.997  1.00  0.00    -0.278 NA 
HETATM   26  C   UNL     1     -12.484  10.310  71.801  1.00  0.00    -0.431 A  
HETATM   27  C   UNL     1     -12.123  12.084  70.224  1.00  0.00    -0.312 A  
ENDBRANCH  12  21
ENDBRANCH  10  11
ENDBRANCH   7  10
TORSDOF 3
ENDMDL
MODEL       76
REMARK 921   NORMALIZED FREE ENERGY PREDICTED BY IDOCK:   -5.02 KCAL/MOL
REMARK 922        TOTAL FREE ENERGY PREDICTED BY IDOCK:   -6.71 KCAL/MOL
REMARK 923 INTER-LIGAND FREE ENERGY PREDICTED BY IDOCK:   -6.10 KCAL/MOL
REMARK 924 INTRA-LIGAND FREE ENERGY PREDICTED BY IDOCK:   -0.61 KCAL/MOL
REMARK 927      BINDING AFFINITY PREDICTED BY RF-SCORE:    0.00 PKD
ROOT
HETATM    1  C   UNL     1      -8.024  16.553  68.084  1.00  0.00    -0.163 C  
HETATM    2  N   UNL     1      -8.182  15.643  69.218  1.00  0.00    -0.243 NA 
HETATM    3  C   UNL     1      -9.584  15.599  69.691  1.00  0.00    -0.260 C  
HETATM    4  C   UNL     1     -10.546  14.828  68.767  1.00  0.00    -0.251 C  
HETATM    5  N   UNL     1     -10.030  13.496  68.469  1.00  0.00    -0.228 N  
HETATM    6  C   UNL     1      -8.657  13.472  67.959  1.00  0.00    -0.177 C  
HETATM    7  C   UNL     1     -10.690  12.384  68.953  1.00  0.00    -0.164 C  
HETATM    8  O   UNL     1     -11.686  12.442  69.660  1.00  0.00    -0.300 OA 
HETATM    9  C   UNL     1      -7.720  14.272  68.892  1.00  0.00    -0.112 C  
ENDROOT
BRANCH   7  10
HETATM   10  O   UNL     1     -10.129  11.227  68.528  1.00  0.00    -0.190 OA 
BRANCH  10  11
HETATM   11  C   UNL     1     -10.899  10.480  67.587  1.00  0.00    -0.300 C  
HETATM   12  N   UNL     1     -10.481  10.855  66.246  1.00  0.00    -0.256 N  
HETATM   13  C   UNL     1      -9.840   9.821  65.575  1.00  0.00    -0.308 C  
HETATM   14  C   UNL     1     -10.428   9.047  67.681  1.00  0.00    -0.260 A  
HETATM   15  N   UNL     1     -10.537   8.212  68.741  1.00  0.00    -0.169 NA 
HETATM   16  C   UNL     1      -9.799   8.686  66.507  1.00  0.00    -0.278 A  
HETATM   17  O   UNL     1      -9.439   9.789  64.426  1.00  0.00    -0.274 OA 
HETATM   18  C   UNL     1      -9.977   6.993  68.532  1.00  0.00    -0.155 A  
HETATM   19  N   UNL     1      -9.246   7.480  66.275  1.00  0.00    -0.168 NA 
HETATM   20  C   UNL     1      -9.352   6.638  67.332  1.00  0.00    -0.129 A  
BRANCH  12  21
HETATM   21  C   UNL     1     -10.956  12.027  65.650  1.00  0.00    -0.297 A  
HETATM   22 CL   UNL     1     -12.201  15.940  63.891  1.00  0.00     0.204 Cl 
HETATM   23  C   UNL     1     -12.670  13.678  65.295  1.00  0.00    -0.478 A  
HETATM   24  C   UNL     1     -10.494  13.902  64.371  1.00  0.00    -0.163 A  
HETATM   25  N   UNL     1     -10.088  12.712  64.876  1.00  0.00    -0.256 NA 
HETATM   26  C   UNL     1     -12.257  12.474  65.868  1.00  0.00    -0.310 A  
HETATM   27  C   UNL     1     -11.763  14.421  64.553  1.00  0.00    -0.419 A  
ENDBRANCH  12  21
ENDBRANCH  10  11
ENDBRANCH   7  10
TORSDOF 3
ENDMDL
MODEL       77
REMARK 921   NORMALIZED FREE ENERGY PREDICTED BY IDOCK:   -5.01 KCAL/MOL
REMARK 922        TOTAL FREE ENERGY PREDICTED BY IDOCK:   -6.69 KCAL/MOL
REMARK 923 INTER-LIGAND FREE ENERGY PREDICTED BY IDOCK:   -8.03 KCAL/MOL
REMARK 924 INTRA-LIGAND FREE ENERGY PREDICTED BY IDOCK:    1.33 KCAL/MOL
REMARK 927      BINDING AFFINITY PREDICTED BY RF-SCORE:    0.00 PKD
ROOT
HETATM    1  C   UNL     1     -12.748  11.877  63.916  1.00  0.00    -0.300 C  
HETATM    2  N   UNL     1     -12.214  12.228  65.231  1.00  0.00    -0.532 NA 
HETATM    3  C   UNL     1     -10.736  12.312  65.216  1.00  0.00    -0.292 C  
HETATM    4  C   UNL     1     -10.175  13.560  64.508  1.00  0.00    -0.269 C  
HETATM    5  N   UNL     1     -10.784  14.777  65.033  1.00  0.00    -0.407 N  
HETATM    6  C   UNL     1     -12.249  14.774  65.040  1.00  0.00    -0.252 C  
HETATM    7  C   UNL     1     -10.013  15.674  65.746  1.00  0.00    -0.359 C  
HETATM    8  O   UNL     1      -8.831  15.496  66.003  1.00  0.00    -0.308 OA 
HETATM    9  C   UNL     1     -12.783  13.501  65.735  1.00  0.00    -0.374 C  
ENDROOT
BRANCH   7  10
HETATM   10  O   UNL     1     -10.707  16.783  66.099  1.00  0.00    -0.240 OA 
BRANCH  10  11
HETATM   11  C   UNL     1     -10.639  17.136  67.479  1.00  0.00    -0.323 C  
HETATM   12  N   UNL     1      -9.878  16.115  68.181  1.00  0.00    -0.225 N  
HETATM   13  C   UNL     1      -8.663  16.587  68.660  1.00  0.00    -0.244 C  
HETATM   14  C   UNL     1      -9.728  18.338  67.575  1.00  0.00    -0.300 A  
HETATM   15  N   UNL     1      -9.935  19.572  67.059  1.00  0.00    -0.352 NA 
HETATM   16  C   UNL     1      -8.574  17.995  68.250  1.00  0.00    -0.287 A  
HETATM   17  O   UNL     1      -7.837  16.011  69.344  1.00  0.00    -0.238 OA 
HETATM   18  C   UNL     1      -8.907  20.432  67.277  1.00  0.00    -0.338 A  
HETATM   19  N   UNL     1      -7.548  18.834  68.487  1.00  0.00    -0.317 NA 
HETATM   20  C   UNL     1      -7.749  20.073  67.974  1.00  0.00    -0.266 A  
BRANCH  12  21
HETATM   21  C   UNL     1     -10.478  14.909  68.558  1.00  0.00    -0.242 A  
HETATM   22 CL   UNL     1     -12.311  10.932  69.438  1.00  0.00    -0.306 Cl 
HETATM   23  C   UNL     1     -12.363  13.633  69.337  1.00  0.00    -0.199 A  
HETATM   24  C   UNL     1     -10.325  12.602  68.685  1.00  0.00    -0.177 A  
HETATM   25  N   UNL     1      -9.732  13.792  68.424  1.00  0.00    -0.223 NA 
HETATM   26  C   UNL     1     -11.789  14.867  69.024  1.00  0.00    -0.333 A  
HETATM   27  C   UNL     1     -11.625  12.475  69.139  1.00  0.00    -0.320 A  
ENDBRANCH  12  21
ENDBRANCH  10  11
ENDBRANCH   7  10
TORSDOF 3
ENDMDL
MODEL       78
REMARK 921   NORMALIZED FREE ENERGY PREDICTED BY IDOCK:   -5.00 KCAL/MOL
REMARK 922        TOTAL FREE ENERGY PREDICTED BY IDOCK:   -6.69 KCAL/MOL
REMARK 923 INTER-LIGAND FREE ENERGY PREDICTED BY IDOCK:   -5.94 KCAL/MOL
REMARK 924 INTRA-LIGAND FREE ENERGY PREDICTED BY IDOCK:   -0.74 KCAL/MOL
REMARK 927      BINDING AFFINITY PREDICTED BY RF-SCORE:    0.00 PKD
ROOT
HETATM    1  C   UNL     1      -5.706   7.836  63.253  1.00  0.00    -0.054 C  
HETATM    2  N   UNL     1      -5.996   9.259  63.420  1.00  0.00    -0.088 NA 
HETATM    3  C   UNL     1      -7.196   9.665  62.652  1.00  0.00    -0.103 C  
HETATM    4  C   UNL     1      -8.531   9.185  63.251  1.00  0.00    -0.195 C  
HETATM    5  N   UNL     1      -8.635   9.556  64.658  1.00  0.00    -0.175 N  
HETATM    6  C   UNL     1      -7.496   9.149  65.484  1.00  0.00    -0.089 C  
HETATM    7  C   UNL     1      -9.576  10.487  65.051  1.00  0.00    -0.276 C  
HETATM    8  O   UNL     1     -10.326  11.062  64.275  1.00  0.00    -0.322 OA 
HETATM    9  C   UNL     1      -6.170   9.622  64.847  1.00  0.00    -0.085 C  
ENDROOT
BRANCH   7  10
HETATM   10  O   UNL     1      -9.595  10.665  66.394  1.00  0.00    -0.180 OA 
BRANCH  10  11
HETATM   11  C   UNL     1     -10.851  10.426  67.028  1.00  0.00    -0.203 C  
HETATM   12  N   UNL     1     -10.611   9.734  68.283  1.00  0.00    -0.220 N  
HETATM   13  C   UNL     1     -10.924  10.510  69.392  1.00  0.00    -0.250 C  
HETATM   14  C   UNL     1     -11.364  11.768  67.494  1.00  0.00    -0.310 A  
HETATM   15  N   UNL     1     -11.721  12.825  66.727  1.00  0.00    -0.376 NA 
HETATM   16  C   UNL     1     -11.384  11.806  68.873  1.00  0.00    -0.267 A  
HETATM   17  O   UNL     1     -10.906  10.202  70.569  1.00  0.00    -0.298 OA 
HETATM   18  C   UNL     1     -12.104  13.913  67.445  1.00  0.00    -0.345 A  
HETATM   19  N   UNL     1     -11.769  12.869  69.604  1.00  0.00    -0.309 NA 
HETATM   20  C   UNL     1     -12.130  13.932  68.843  1.00  0.00    -0.319 A  
BRANCH  12  21
HETATM   21  C   UNL     1     -10.378   8.355  68.307  1.00  0.00    -0.199 A  
HETATM   22 CL   UNL     1      -9.288   4.024  68.398  1.00  0.00    -0.205 Cl 
HETATM   23  C   UNL     1     -10.580   6.156  67.352  1.00  0.00    -0.352 A  
HETATM   24  C   UNL     1      -9.299   6.567  69.309  1.00  0.00    -0.141 A  
HETATM   25  N   UNL     1      -9.623   7.884  69.322  1.00  0.00    -0.156 NA 
HETATM   26  C   UNL     1     -10.884   7.519  67.316  1.00  0.00    -0.297 A  
HETATM   27  C   UNL     1      -9.749   5.675  68.354  1.00  0.00    -0.128 A  
ENDBRANCH  12  21
ENDBRANCH  10  11
ENDBRANCH   7  10
TORSDOF 3
ENDMDL
MODEL       79
REMARK 921   NORMALIZED FREE ENERGY PREDICTED BY IDOCK:   -5.00 KCAL/MOL
REMARK 922        TOTAL FREE ENERGY PREDICTED BY IDOCK:   -6.68 KCAL/MOL
REMARK 923 INTER-LIGAND FREE ENERGY PREDICTED BY IDOCK:   -5.92 KCAL/MOL
REMARK 924 INTRA-LIGAND FREE ENERGY PREDICTED BY IDOCK:   -0.76 KCAL/MOL
REMARK 927      BINDING AFFINITY PREDICTED BY RF-SCORE:    0.00 PKD
ROOT
HETATM    1  C   UNL     1     -11.362   6.634  72.703  1.00  0.00    -0.225 C  
HETATM    2  N   UNL     1     -11.003   8.050  72.761  1.00  0.00    -0.386 NA 
HETATM    3  C   UNL     1      -9.547   8.253  72.583  1.00  0.00    -0.282 C  
HETATM    4  C   UNL     1      -9.045   8.047  71.142  1.00  0.00    -0.149 C  
HETATM    5  N   UNL     1      -9.824   8.842  70.198  1.00  0.00    -0.172 N  
HETATM    6  C   UNL     1     -11.274   8.659  70.295  1.00  0.00    -0.184 C  
HETATM    7  C   UNL     1      -9.224   9.892  69.532  1.00  0.00    -0.223 C  
HETATM    8  O   UNL     1      -8.063  10.231  69.708  1.00  0.00    -0.166 OA 
HETATM    9  C   UNL     1     -11.746   8.848  71.755  1.00  0.00    -0.362 C  
ENDROOT
BRANCH   7  10
HETATM   10  O   UNL     1     -10.058  10.481  68.641  1.00  0.00    -0.165 OA 
BRANCH  10  11
HETATM   11  C   UNL     1      -9.423  11.252  67.622  1.00  0.00    -0.167 C  
HETATM   12  N   UNL     1      -9.804  10.712  66.328  1.00  0.00    -0.206 N  
HETATM   13  C   UNL     1     -10.602  11.584  65.597  1.00  0.00    -0.274 C  
HETATM   14  C   UNL     1     -10.097  12.604  67.618  1.00  0.00    -0.218 A  
HETATM   15  N   UNL     1     -10.094  13.529  68.606  1.00  0.00    -0.205 NA 
HETATM   16  C   UNL     1     -10.794  12.773  66.439  1.00  0.00    -0.271 A  
HETATM   17  O   UNL     1     -11.023  11.464  64.461  1.00  0.00    -0.326 OA 
HETATM   18  C   UNL     1     -10.832  14.633  68.319  1.00  0.00    -0.245 A  
HETATM   19  N   UNL     1     -11.522  13.863  66.130  1.00  0.00    -0.335 NA 
HETATM   20  C   UNL     1     -11.523  14.795  67.114  1.00  0.00    -0.364 A  
BRANCH  12  21
HETATM   21  C   UNL     1      -9.171   9.578  65.811  1.00  0.00    -0.211 A  
HETATM   22 CL   UNL     1      -7.038   5.882  64.490  1.00  0.00    -0.051 Cl 
HETATM   23  C   UNL     1      -7.613   8.517  64.315  1.00  0.00    -0.122 A  
HETATM   24  C   UNL     1      -8.791   7.299  65.979  1.00  0.00    -0.136 A  
HETATM   25  N   UNL     1      -9.469   8.397  66.394  1.00  0.00    -0.212 NA 
HETATM   26  C   UNL     1      -8.260   9.671  64.762  1.00  0.00    -0.142 A  
HETATM   27  C   UNL     1      -7.863   7.311  64.953  1.00  0.00    -0.126 A  
ENDBRANCH  12  21
ENDBRANCH  10  11
ENDBRANCH   7  10
TORSDOF 3
ENDMDL
MODEL       80
REMARK 921   NORMALIZED FREE ENERGY PREDICTED BY IDOCK:   -4.96 KCAL/MOL
REMARK 922        TOTAL FREE ENERGY PREDICTED BY IDOCK:   -6.64 KCAL/MOL
REMARK 923 INTER-LIGAND FREE ENERGY PREDICTED BY IDOCK:   -5.66 KCAL/MOL
REMARK 924 INTRA-LIGAND FREE ENERGY PREDICTED BY IDOCK:   -0.98 KCAL/MOL
REMARK 927      BINDING AFFINITY PREDICTED BY RF-SCORE:    0.00 PKD
ROOT
HETATM    1  C   UNL     1     -13.555   9.320  71.290  1.00  0.00    -0.225 C  
HETATM    2  N   UNL     1     -12.331   9.968  71.758  1.00  0.00    -0.384 NA 
HETATM    3  C   UNL     1     -11.122   9.316  71.204  1.00  0.00    -0.341 C  
HETATM    4  C   UNL     1     -10.865   9.606  69.714  1.00  0.00    -0.250 C  
HETATM    5  N   UNL     1     -10.877  11.042  69.452  1.00  0.00    -0.238 N  
HETATM    6  C   UNL     1     -12.067  11.743  69.941  1.00  0.00    -0.287 C  
HETATM    7  C   UNL     1      -9.710  11.677  69.075  1.00  0.00     0.087 C  
HETATM    8  O   UNL     1      -8.632  11.109  68.976  1.00  0.00    -0.125 OA 
HETATM    9  C   UNL     1     -12.313  11.414  71.431  1.00  0.00    -0.165 C  
ENDROOT
BRANCH   7  10
HETATM   10  O   UNL     1      -9.904  12.988  68.798  1.00  0.00    -0.119 OA 
BRANCH  10  11
HETATM   11  C   UNL     1      -9.079  13.526  67.765  1.00  0.00    -0.207 C  
HETATM   12  N   UNL     1      -9.912  14.317  66.873  1.00  0.00    -0.257 N  
HETATM   13  C   UNL     1      -9.621  15.674  66.931  1.00  0.00    -0.230 C  
HETATM   14  C   UNL     1      -8.209  14.580  68.410  1.00  0.00    -0.150 A  
HETATM   15  N   UNL     1      -7.257  14.397  69.355  1.00  0.00    -0.118 NA 
HETATM   16  C   UNL     1      -8.550  15.826  67.925  1.00  0.00    -0.159 A  
HETATM   17  O   UNL     1     -10.082  16.582  66.264  1.00  0.00    -0.300 OA 
HETATM   18  C   UNL     1      -6.673  15.551  69.769  1.00  0.00    -0.157 A  
HETATM   19  N   UNL     1      -7.977  16.981  68.313  1.00  0.00    -0.213 NA 
HETATM   20  C   UNL     1      -7.022  16.806  69.259  1.00  0.00    -0.216 A  
BRANCH  12  21
HETATM   21  C   UNL     1     -10.685  13.701  65.884  1.00  0.00    -0.281 A  
HETATM   22 CL   UNL     1     -13.216  11.472  62.955  1.00  0.00     0.454 Cl 
HETATM   23  C   UNL     1     -10.959  12.768  63.683  1.00  0.00    -0.403 A  
HETATM   24  C   UNL     1     -12.681  12.671  65.315  1.00  0.00    -0.153 A  
HETATM   25  N   UNL     1     -11.947  13.360  66.224  1.00  0.00    -0.393 NA 
HETATM   26  C   UNL     1     -10.165  13.433  64.621  1.00  0.00    -0.338 A  
HETATM   27  C   UNL     1     -12.232  12.355  64.046  1.00  0.00    -0.490 A  
ENDBRANCH  12  21
ENDBRANCH  10  11
ENDBRANCH   7  10
TORSDOF 3
ENDMDL
MODEL       81
REMARK 921   NORMALIZED FREE ENERGY PREDICTED BY IDOCK:   -4.96 KCAL/MOL
REMARK 922        TOTAL FREE ENERGY PREDICTED BY IDOCK:   -6.64 KCAL/MOL
REMARK 923 INTER-LIGAND FREE ENERGY PREDICTED BY IDOCK:   -6.02 KCAL/MOL
REMARK 924 INTRA-LIGAND FREE ENERGY PREDICTED BY IDOCK:   -0.62 KCAL/MOL
REMARK 927      BINDING AFFINITY PREDICTED BY RF-SCORE:    0.00 PKD
ROOT
HETATM    1  C   UNL     1      -5.868   8.899  72.396  1.00  0.00    -0.071 C  
HETATM    2  N   UNL     1      -5.347   9.222  71.069  1.00  0.00    -0.032 NA 
HETATM    3  C   UNL     1      -5.384   8.047  70.168  1.00  0.00    -0.023 C  
HETATM    4  C   UNL     1      -6.791   7.668  69.670  1.00  0.00    -0.044 C  
HETATM    5  N   UNL     1      -7.469   8.821  69.088  1.00  0.00    -0.075 N  
HETATM    6  C   UNL     1      -7.502  10.008  69.946  1.00  0.00    -0.167 C  
HETATM    7  C   UNL     1      -7.739   8.843  67.734  1.00  0.00    -0.101 C  
HETATM    8  O   UNL     1      -7.410   7.952  66.963  1.00  0.00    -0.087 OA 
HETATM    9  C   UNL     1      -6.082  10.351  70.449  1.00  0.00    -0.118 C  
ENDROOT
BRANCH   7  10
HETATM   10  O   UNL     1      -8.435   9.945  67.365  1.00  0.00    -0.118 OA 
BRANCH  10  11
HETATM   11  C   UNL     1      -9.728   9.699  66.813  1.00  0.00    -0.197 C  
HETATM   12  N   UNL     1     -10.677  10.605  67.437  1.00  0.00    -0.256 N  
HETATM   13  C   UNL     1     -11.182  11.547  66.549  1.00  0.00    -0.259 C  
HETATM   14  C   UNL     1      -9.693  10.200  65.388  1.00  0.00    -0.291 A  
HETATM   15  N   UNL     1      -8.942   9.727  64.366  1.00  0.00    -0.230 NA 
HETATM   16  C   UNL     1     -10.533  11.287  65.257  1.00  0.00    -0.282 A  
HETATM   17  O   UNL     1     -12.040  12.390  66.737  1.00  0.00    -0.578 OA 
HETATM   18  C   UNL     1      -9.102  10.419  63.208  1.00  0.00    -0.263 A  
HETATM   19  N   UNL     1     -10.714  11.981  64.117  1.00  0.00    -0.324 NA 
HETATM   20  C   UNL     1      -9.966  11.512  63.088  1.00  0.00    -0.377 A  
BRANCH  12  21
HETATM   21  C   UNL     1     -11.206  10.328  68.702  1.00  0.00    -0.208 A  
HETATM   22 CL   UNL     1     -13.043   9.154  72.601  1.00  0.00    -0.437 Cl 
HETATM   23  C   UNL     1     -12.531  10.921  70.620  1.00  0.00    -0.460 A  
HETATM   24  C   UNL     1     -11.534   8.778  70.392  1.00  0.00    -0.144 A  
HETATM   25  N   UNL     1     -10.948   9.106  69.214  1.00  0.00    -0.128 NA 
HETATM   26  C   UNL     1     -11.980  11.263  69.383  1.00  0.00    -0.410 A  
HETATM   27  C   UNL     1     -12.326   9.645  71.123  1.00  0.00    -0.339 A  
ENDBRANCH  12  21
ENDBRANCH  10  11
ENDBRANCH   7  10
TORSDOF 3
ENDMDL
MODEL       82
REMARK 921   NORMALIZED FREE ENERGY PREDICTED BY IDOCK:   -4.95 KCAL/MOL
REMARK 922        TOTAL FREE ENERGY PREDICTED BY IDOCK:   -6.62 KCAL/MOL
REMARK 923 INTER-LIGAND FREE ENERGY PREDICTED BY IDOCK:   -5.88 KCAL/MOL
REMARK 924 INTRA-LIGAND FREE ENERGY PREDICTED BY IDOCK:   -0.74 KCAL/MOL
REMARK 927      BINDING AFFINITY PREDICTED BY RF-SCORE:    0.00 PKD
ROOT
HETATM    1  C   UNL     1      -7.722  10.355  62.360  1.00  0.00    -0.148 C  
HETATM    2  N   UNL     1      -8.760   9.614  63.075  1.00  0.00    -0.211 NA 
HETATM    3  C   UNL     1      -8.221   8.384  63.700  1.00  0.00    -0.104 C  
HETATM    4  C   UNL     1      -7.351   8.630  64.947  1.00  0.00    -0.090 C  
HETATM    5  N   UNL     1      -8.049   9.471  65.913  1.00  0.00    -0.113 N  
HETATM    6  C   UNL     1      -8.574  10.725  65.367  1.00  0.00    -0.157 C  
HETATM    7  C   UNL     1      -8.436   8.939  67.128  1.00  0.00    -0.106 C  
HETATM    8  O   UNL     1      -8.258   7.771  67.443  1.00  0.00    -0.120 OA 
HETATM    9  C   UNL     1      -9.423  10.450  64.105  1.00  0.00    -0.300 C  
ENDROOT
BRANCH   7  10
HETATM   10  O   UNL     1      -9.003   9.865  67.938  1.00  0.00    -0.128 OA 
BRANCH  10  11
HETATM   11  C   UNL     1     -10.399   9.696  68.180  1.00  0.00    -0.209 C  
HETATM   12  N   UNL     1     -10.579   9.231  69.545  1.00  0.00    -0.221 N  
HETATM   13  C   UNL     1     -11.204  10.171  70.354  1.00  0.00    -0.330 C  
HETATM   14  C   UNL     1     -11.000  11.081  68.231  1.00  0.00    -0.235 A  
HETATM   15  N   UNL     1     -11.075  11.985  67.226  1.00  0.00    -0.268 NA 
HETATM   16  C   UNL     1     -11.448  11.347  69.509  1.00  0.00    -0.312 A  
HETATM   17  O   UNL     1     -11.561  10.064  71.513  1.00  0.00    -0.353 OA 
HETATM   18  C   UNL     1     -11.637  13.164  67.595  1.00  0.00    -0.349 A  
HETATM   19  N   UNL     1     -12.018  12.505  69.895  1.00  0.00    -0.328 NA 
HETATM   20  C   UNL     1     -12.097  13.415  68.892  1.00  0.00    -0.252 A  
BRANCH  12  21
HETATM   21  C   UNL     1     -10.398   7.883  69.871  1.00  0.00    -0.224 A  
HETATM   22 CL   UNL     1      -9.469   3.631  70.878  1.00  0.00    -0.223 Cl 
HETATM   23  C   UNL     1     -10.779   5.539  69.482  1.00  0.00    -0.332 A  
HETATM   24  C   UNL     1      -9.290   6.311  71.163  1.00  0.00    -0.160 A  
HETATM   25  N   UNL     1      -9.561   7.612  70.896  1.00  0.00    -0.165 NA 
HETATM   26  C   UNL     1     -11.033   6.873  69.154  1.00  0.00    -0.240 A  
HETATM   27  C   UNL     1      -9.870   5.252  70.489  1.00  0.00    -0.207 A  
ENDBRANCH  12  21
ENDBRANCH  10  11
ENDBRANCH   7  10
TORSDOF 3
ENDMDL
MODEL       83
REMARK 921   NORMALIZED FREE ENERGY PREDICTED BY IDOCK:   -4.90 KCAL/MOL
REMARK 922        TOTAL FREE ENERGY PREDICTED BY IDOCK:   -6.57 KCAL/MOL
REMARK 923 INTER-LIGAND FREE ENERGY PREDICTED BY IDOCK:   -6.08 KCAL/MOL
REMARK 924 INTRA-LIGAND FREE ENERGY PREDICTED BY IDOCK:   -0.49 KCAL/MOL
REMARK 927      BINDING AFFINITY PREDICTED BY RF-SCORE:    0.00 PKD
ROOT
HETATM    1  C   UNL     1     -10.037   6.142  71.997  1.00  0.00    -0.181 C  
HETATM    2  N   UNL     1     -11.328   6.535  71.434  1.00  0.00    -0.281 NA 
HETATM    3  C   UNL     1     -12.043   7.484  72.319  1.00  0.00    -0.230 C  
HETATM    4  C   UNL     1     -11.462   8.910  72.329  1.00  0.00    -0.237 C  
HETATM    5  N   UNL     1     -11.325   9.429  70.973  1.00  0.00    -0.306 N  
HETATM    6  C   UNL     1     -10.592   8.554  70.054  1.00  0.00    -0.227 C  
HETATM    7  C   UNL     1     -12.113  10.486  70.563  1.00  0.00    -0.345 C  
HETATM    8  O   UNL     1     -12.963  11.010  71.269  1.00  0.00    -0.386 OA 
HETATM    9  C   UNL     1     -11.181   7.126  70.082  1.00  0.00    -0.262 C  
ENDROOT
BRANCH   7  10
HETATM   10  O   UNL     1     -11.814  10.896  69.307  1.00  0.00    -0.302 OA 
BRANCH  10  11
HETATM   11  C   UNL     1     -10.625  11.675  69.182  1.00  0.00    -0.108 C  
HETATM   12  N   UNL     1     -10.162  11.595  67.806  1.00  0.00    -0.183 N  
HETATM   13  C   UNL     1     -10.262  12.807  67.135  1.00  0.00    -0.233 C  
HETATM   14  C   UNL     1     -11.042  13.123  69.297  1.00  0.00    -0.145 A  
HETATM   15  N   UNL     1     -11.579  13.743  70.373  1.00  0.00    -0.149 NA 
HETATM   16  C   UNL     1     -10.840  13.762  68.090  1.00  0.00    -0.246 A  
HETATM   17  O   UNL     1      -9.895  13.089  66.009  1.00  0.00    -0.272 OA 
HETATM   18  C   UNL     1     -11.889  15.047  70.151  1.00  0.00    -0.314 A  
HETATM   19  N   UNL     1     -11.129  15.056  67.852  1.00  0.00    -0.295 NA 
HETATM   20  C   UNL     1     -11.667  15.684  68.926  1.00  0.00    -0.384 A  
BRANCH  12  21
HETATM   21  C   UNL     1      -9.438  10.486  67.359  1.00  0.00    -0.153 A  
HETATM   22 CL   UNL     1      -7.419   6.750  65.972  1.00  0.00    -0.079 Cl 
HETATM   23  C   UNL     1      -7.591   8.953  67.529  1.00  0.00    -0.093 A  
HETATM   24  C   UNL     1      -9.327   8.662  65.936  1.00  0.00    -0.195 A  
HETATM   25  N   UNL     1      -9.958   9.799  66.320  1.00  0.00    -0.251 NA 
HETATM   26  C   UNL     1      -8.251  10.099  67.977  1.00  0.00    -0.113 A  
HETATM   27  C   UNL     1      -8.153   8.204  66.506  1.00  0.00    -0.106 A  
ENDBRANCH  12  21
ENDBRANCH  10  11
ENDBRANCH   7  10
TORSDOF 3
ENDMDL
MODEL       84
REMARK 921   NORMALIZED FREE ENERGY PREDICTED BY IDOCK:   -4.88 KCAL/MOL
REMARK 922        TOTAL FREE ENERGY PREDICTED BY IDOCK:   -6.55 KCAL/MOL
REMARK 923 INTER-LIGAND FREE ENERGY PREDICTED BY IDOCK:   -6.04 KCAL/MOL
REMARK 924 INTRA-LIGAND FREE ENERGY PREDICTED BY IDOCK:   -0.51 KCAL/MOL
REMARK 927      BINDING AFFINITY PREDICTED BY RF-SCORE:    0.00 PKD
ROOT
HETATM    1  C   UNL     1      -8.682   8.598  63.970  1.00  0.00     0.092 C  
HETATM    2  N   UNL     1      -8.153   9.776  64.655  1.00  0.00    -0.139 NA 
HETATM    3  C   UNL     1      -8.206  10.978  63.792  1.00  0.00     0.341 C  
HETATM    4  C   UNL     1      -9.617  11.561  63.595  1.00  0.00    -0.249 C  
HETATM    5  N   UNL     1     -10.276  11.783  64.877  1.00  0.00    -0.263 N  
HETATM    6  C   UNL     1     -10.293  10.618  65.766  1.00  0.00    -0.219 C  
HETATM    7  C   UNL     1     -10.543  13.072  65.294  1.00  0.00    -0.304 C  
HETATM    8  O   UNL     1     -10.226  14.069  64.660  1.00  0.00    -0.420 OA 
HETATM    9  C   UNL     1      -8.869  10.041  65.927  1.00  0.00    -0.144 C  
ENDROOT
BRANCH   7  10
HETATM   10  O   UNL     1     -11.221  13.105  66.466  1.00  0.00    -0.295 OA 
BRANCH  10  11
HETATM   11  C   UNL     1     -10.420  13.271  67.635  1.00  0.00    -0.229 C  
HETATM   12  N   UNL     1     -10.582  14.633  68.118  1.00  0.00    -0.234 N  
HETATM   13  C   UNL     1     -11.241  14.694  69.339  1.00  0.00    -0.279 C  
HETATM   14  C   UNL     1     -11.076  12.462  68.730  1.00  0.00    -0.262 A  
HETATM   15  N   UNL     1     -11.233  11.119  68.780  1.00  0.00    -0.228 NA 
HETATM   16  C   UNL     1     -11.564  13.308  69.705  1.00  0.00    -0.261 A  
HETATM   17  O   UNL     1     -11.466  15.666  70.037  1.00  0.00    -0.288 OA 
HETATM   18  C   UNL     1     -11.906  10.691  69.880  1.00  0.00    -0.315 A  
HETATM   19  N   UNL     1     -12.224  12.905  70.808  1.00  0.00    -0.340 NA 
HETATM   20  C   UNL     1     -12.384  11.560  70.866  1.00  0.00    -0.359 A  
BRANCH  12  21
HETATM   21  C   UNL     1      -9.878  15.689  67.530  1.00  0.00    -0.228 A  
HETATM   22 CL   UNL     1      -7.487  19.125  65.971  1.00  0.00    -0.292 Cl 
HETATM   23  C   UNL     1      -9.797  17.762  66.311  1.00  0.00    -0.301 A  
HETATM   24  C   UNL     1      -7.846  16.756  67.219  1.00  0.00    -0.173 A  
HETATM   25  N   UNL     1      -8.538  15.690  67.691  1.00  0.00    -0.164 NA 
HETATM   26  C   UNL     1     -10.537  16.699  66.835  1.00  0.00    -0.229 A  
HETATM   27  C   UNL     1      -8.428  17.805  66.530  1.00  0.00    -0.260 A  
ENDBRANCH  12  21
ENDBRANCH  10  11
ENDBRANCH   7  10
TORSDOF 3
ENDMDL
MODEL       85
REMARK 921   NORMALIZED FREE ENERGY PREDICTED BY IDOCK:   -4.87 KCAL/MOL
REMARK 922        TOTAL FREE ENERGY PREDICTED BY IDOCK:   -6.53 KCAL/MOL
REMARK 923 INTER-LIGAND FREE ENERGY PREDICTED BY IDOCK:   -5.89 KCAL/MOL
REMARK 924 INTRA-LIGAND FREE ENERGY PREDICTED BY IDOCK:   -0.64 KCAL/MOL
REMARK 927      BINDING AFFINITY PREDICTED BY RF-SCORE:    0.00 PKD
ROOT
HETATM    1  C   UNL     1     -12.187  14.396  64.357  1.00  0.00    -0.458 C  
HETATM    2  N   UNL     1     -11.081  14.342  65.312  1.00  0.00    -0.319 NA 
HETATM    3  C   UNL     1     -11.519  14.711  66.677  1.00  0.00    -0.357 C  
HETATM    4  C   UNL     1     -12.362  13.637  67.389  1.00  0.00    -0.107 C  
HETATM    5  N   UNL     1     -11.689  12.343  67.366  1.00  0.00    -0.361 N  
HETATM    6  C   UNL     1     -11.262  11.900  66.036  1.00  0.00    -0.324 C  
HETATM    7  C   UNL     1     -11.229  11.790  68.545  1.00  0.00    -0.252 C  
HETATM    8  O   UNL     1     -11.321  12.342  69.632  1.00  0.00    -0.217 OA 
HETATM    9  C   UNL     1     -10.440  13.005  65.336  1.00  0.00    -0.296 C  
ENDROOT
BRANCH   7  10
HETATM   10  O   UNL     1     -10.696  10.558  68.363  1.00  0.00    -0.194 OA 
BRANCH  10  11
HETATM   11  C   UNL     1      -9.513  10.285  69.112  1.00  0.00    -0.215 C  
HETATM   12  N   UNL     1      -9.255   8.855  69.063  1.00  0.00    -0.140 N  
HETATM   13  C   UNL     1      -8.106   8.541  68.348  1.00  0.00    -0.122 C  
HETATM   14  C   UNL     1      -8.357  10.847  68.318  1.00  0.00    -0.129 A  
HETATM   15  N   UNL     1      -8.115  12.145  68.022  1.00  0.00    -0.145 NA 
HETATM   16  C   UNL     1      -7.558   9.817  67.866  1.00  0.00    -0.086 A  
HETATM   17  O   UNL     1      -7.581   7.455  68.185  1.00  0.00    -0.108 OA 
HETATM   18  C   UNL     1      -7.013  12.331  67.251  1.00  0.00    -0.142 A  
HETATM   19  N   UNL     1      -6.456   9.978  67.109  1.00  0.00    -0.068 NA 
HETATM   20  C   UNL     1      -6.206  11.277  66.810  1.00  0.00    -0.134 A  
BRANCH  12  21
HETATM   21  C   UNL     1      -9.945   7.974  69.902  1.00  0.00    -0.189 A  
HETATM   22 CL   UNL     1     -11.901   5.222  72.827  1.00  0.00    -0.248 Cl 
HETATM   23  C   UNL     1     -10.886   5.815  70.392  1.00  0.00    -0.360 A  
HETATM   24  C   UNL     1     -10.863   7.571  71.990  1.00  0.00    -0.233 A  
HETATM   25  N   UNL     1     -10.284   8.438  71.123  1.00  0.00    -0.194 NA 
HETATM   26  C   UNL     1     -10.243   6.675  69.500  1.00  0.00    -0.208 A  
HETATM   27  C   UNL     1     -11.178   6.263  71.672  1.00  0.00    -0.285 A  
ENDBRANCH  12  21
ENDBRANCH  10  11
ENDBRANCH   7  10
TORSDOF 3
ENDMDL
MODEL       86
REMARK 921   NORMALIZED FREE ENERGY PREDICTED BY IDOCK:   -4.82 KCAL/MOL
REMARK 922        TOTAL FREE ENERGY PREDICTED BY IDOCK:   -6.47 KCAL/MOL
REMARK 923 INTER-LIGAND FREE ENERGY PREDICTED BY IDOCK:   -5.74 KCAL/MOL
REMARK 924 INTRA-LIGAND FREE ENERGY PREDICTED BY IDOCK:   -0.73 KCAL/MOL
REMARK 927      BINDING AFFINITY PREDICTED BY RF-SCORE:    0.00 PKD
ROOT
HETATM    1  C   UNL     1      -6.294   7.046  66.177  1.00  0.00    -0.050 C  
HETATM    2  N   UNL     1      -5.956   8.129  67.100  1.00  0.00    -0.049 NA 
HETATM    3  C   UNL     1      -6.294   9.454  66.533  1.00  0.00    -0.066 C  
HETATM    4  C   UNL     1      -7.801   9.771  66.504  1.00  0.00    -0.109 C  
HETATM    5  N   UNL     1      -8.403   9.571  67.818  1.00  0.00    -0.118 N  
HETATM    6  C   UNL     1      -8.137   8.262  68.420  1.00  0.00    -0.127 C  
HETATM    7  C   UNL     1      -8.882  10.658  68.522  1.00  0.00    -0.148 C  
HETATM    8  O   UNL     1      -8.805  11.811  68.123  1.00  0.00    -0.157 OA 
HETATM    9  C   UNL     1      -6.621   7.961  68.414  1.00  0.00    -0.062 C  
ENDROOT
BRANCH   7  10
HETATM   10  O   UNL     1      -9.474  10.298  69.686  1.00  0.00    -0.211 OA 
BRANCH  10  11
HETATM   11  C   UNL     1     -10.854   9.947  69.591  1.00  0.00    -0.253 C  
HETATM   12  N   UNL     1     -11.145   8.939  70.597  1.00  0.00    -0.255 N  
HETATM   13  C   UNL     1     -11.993   9.406  71.593  1.00  0.00    -0.393 C  
HETATM   14  C   UNL     1     -11.639  11.137  70.090  1.00  0.00    -0.323 A  
HETATM   15  N   UNL     1     -11.705  12.371  69.539  1.00  0.00    -0.315 NA 
HETATM   16  C   UNL     1     -12.282  10.809  71.267  1.00  0.00    -0.321 A  
HETATM   17  O   UNL     1     -12.480   8.797  72.528  1.00  0.00    -0.382 OA 
HETATM   18  C   UNL     1     -12.466  13.244  70.249  1.00  0.00    -0.185 A  
HETATM   19  N   UNL     1     -13.050  11.655  71.981  1.00  0.00    -0.440 NA 
HETATM   20  C   UNL     1     -13.121  12.893  71.434  1.00  0.00    -0.242 A  
BRANCH  12  21
HETATM   21  C   UNL     1     -10.826   7.596  70.377  1.00  0.00    -0.244 A  
HETATM   22 CL   UNL     1      -9.465   3.394  69.704  1.00  0.00    -0.240 Cl 
HETATM   23  C   UNL     1     -10.894   5.592  69.045  1.00  0.00    -0.251 A  
HETATM   24  C   UNL     1      -9.631   5.730  71.052  1.00  0.00    -0.167 A  
HETATM   25  N   UNL     1     -10.037   7.000  71.296  1.00  0.00    -0.191 NA 
HETATM   26  C   UNL     1     -11.283   6.918  69.250  1.00  0.00    -0.188 A  
HETATM   27  C   UNL     1     -10.029   4.994  69.951  1.00  0.00    -0.251 A  
ENDBRANCH  12  21
ENDBRANCH  10  11
ENDBRANCH   7  10
TORSDOF 3
ENDMDL
MODEL       87
REMARK 921   NORMALIZED FREE ENERGY PREDICTED BY IDOCK:   -4.71 KCAL/MOL
REMARK 922        TOTAL FREE ENERGY PREDICTED BY IDOCK:   -6.34 KCAL/MOL
REMARK 923 INTER-LIGAND FREE ENERGY PREDICTED BY IDOCK:   -5.56 KCAL/MOL
REMARK 924 INTRA-LIGAND FREE ENERGY PREDICTED BY IDOCK:   -0.78 KCAL/MOL
REMARK 927      BINDING AFFINITY PREDICTED BY RF-SCORE:    0.00 PKD
ROOT
HETATM    1  C   UNL     1      -6.254  18.436  68.750  1.00  0.00    -0.212 C  
HETATM    2  N   UNL     1      -6.530  17.704  67.514  1.00  0.00    -0.159 NA 
HETATM    3  C   UNL     1      -5.498  16.677  67.246  1.00  0.00    -0.147 C  
HETATM    4  C   UNL     1      -5.578  15.438  68.157  1.00  0.00    -0.125 C  
HETATM    5  N   UNL     1      -6.923  14.872  68.151  1.00  0.00    -0.114 N  
HETATM    6  C   UNL     1      -7.991  15.829  68.448  1.00  0.00    -0.141 C  
HETATM    7  C   UNL     1      -7.139  13.629  67.589  1.00  0.00    -0.170 C  
HETATM    8  O   UNL     1      -6.262  12.967  67.051  1.00  0.00    -0.220 OA 
HETATM    9  C   UNL     1      -7.871  17.072  67.537  1.00  0.00    -0.170 C  
ENDROOT
BRANCH   7  10
HETATM   10  O   UNL     1      -8.421  13.215  67.730  1.00  0.00    -0.159 OA 
BRANCH  10  11
HETATM   11  C   UNL     1      -8.833  12.178  66.841  1.00  0.00    -0.202 C  
HETATM   12  N   UNL     1      -9.491  11.139  67.616  1.00  0.00    -0.164 N  
HETATM   13  C   UNL     1     -10.848  11.040  67.336  1.00  0.00    -0.274 C  
HETATM   14  C   UNL     1      -9.971  12.737  66.020  1.00  0.00    -0.271 A  
HETATM   15  N   UNL     1      -9.924  13.758  65.133  1.00  0.00    -0.263 NA 
HETATM   16  C   UNL     1     -11.140  12.075  66.335  1.00  0.00    -0.318 A  
HETATM   17  O   UNL     1     -11.657  10.233  67.756  1.00  0.00    -0.331 OA 
HETATM   18  C   UNL     1     -11.129  14.057  64.583  1.00  0.00    -0.382 A  
HETATM   19  N   UNL     1     -12.344  12.347  65.794  1.00  0.00    -0.603 NA 
HETATM   20  C   UNL     1     -12.304  13.369  64.903  1.00  0.00    -0.412 A  
BRANCH  12  21
HETATM   21  C   UNL     1      -8.744  10.189  68.319  1.00  0.00    -0.120 A  
HETATM   22 CL   UNL     1      -6.080   7.374  70.540  1.00  0.00    -0.031 Cl 
HETATM   23  C   UNL     1      -7.842   7.973  68.581  1.00  0.00    -0.118 A  
HETATM   24  C   UNL     1      -7.297   9.740  70.071  1.00  0.00    -0.144 A  
HETATM   25  N   UNL     1      -8.109  10.617  69.431  1.00  0.00    -0.131 NA 
HETATM   26  C   UNL     1      -8.644   8.874  67.875  1.00  0.00    -0.126 A  
HETATM   27  C   UNL     1      -7.133   8.422  69.685  1.00  0.00    -0.052 A  
ENDBRANCH  12  21
ENDBRANCH  10  11
ENDBRANCH   7  10
TORSDOF 3
ENDMDL
MODEL       88
REMARK 921   NORMALIZED FREE ENERGY PREDICTED BY IDOCK:   -4.69 KCAL/MOL
REMARK 922        TOTAL FREE ENERGY PREDICTED BY IDOCK:   -6.33 KCAL/MOL
REMARK 923 INTER-LIGAND FREE ENERGY PREDICTED BY IDOCK:   -5.37 KCAL/MOL
REMARK 924 INTRA-LIGAND FREE ENERGY PREDICTED BY IDOCK:   -0.96 KCAL/MOL
REMARK 927      BINDING AFFINITY PREDICTED BY RF-SCORE:    0.00 PKD
ROOT
HETATM    1  C   UNL     1     -12.035  14.316  64.402  1.00  0.00    -0.456 C  
HETATM    2  N   UNL     1     -10.643  13.916  64.605  1.00  0.00    -0.425 NA 
HETATM    3  C   UNL     1     -10.315  13.793  66.044  1.00  0.00    -0.308 C  
HETATM    4  C   UNL     1     -10.913  12.551  66.731  1.00  0.00    -0.265 C  
HETATM    5  N   UNL     1     -10.585  11.336  65.993  1.00  0.00    -0.264 N  
HETATM    6  C   UNL     1     -10.921  11.378  64.568  1.00  0.00    -0.277 C  
HETATM    7  C   UNL     1      -9.741  10.400  66.557  1.00  0.00    -0.194 C  
HETATM    8  O   UNL     1      -9.209  10.539  67.649  1.00  0.00    -0.144 OA 
HETATM    9  C   UNL     1     -10.329  12.645  63.910  1.00  0.00    -0.377 C  
ENDROOT
BRANCH   7  10
HETATM   10  O   UNL     1      -9.598   9.301  65.780  1.00  0.00    -0.254 OA 
BRANCH  10  11
HETATM   11  C   UNL     1      -8.428   8.522  66.027  1.00  0.00    -0.140 C  
HETATM   12  N   UNL     1      -8.836   7.208  66.493  1.00  0.00    -0.136 N  
HETATM   13  C   UNL     1      -8.537   6.200  65.585  1.00  0.00    -0.145 C  
HETATM   14  C   UNL     1      -7.821   8.211  64.678  1.00  0.00    -0.136 A  
HETATM   15  N   UNL     1      -7.299   9.086  63.787  1.00  0.00    -0.099 NA 
HETATM   16  C   UNL     1      -7.910   6.856  64.430  1.00  0.00    -0.112 A  
HETATM   17  O   UNL     1      -8.681   4.997  65.705  1.00  0.00    -0.126 OA 
HETATM   18  C   UNL     1      -6.868   8.502  62.640  1.00  0.00    -0.091 A  
HETATM   19  N   UNL     1      -7.479   6.255  63.304  1.00  0.00    -0.065 NA 
HETATM   20  C   UNL     1      -6.954   7.125  62.408  1.00  0.00    -0.068 A  
BRANCH  12  21
HETATM   21  C   UNL     1      -9.208   7.005  67.826  1.00  0.00    -0.124 A  
HETATM   22 CL   UNL     1     -10.235   6.040  72.065  1.00  0.00    -0.218 Cl 
HETATM   23  C   UNL     1     -10.866   6.845  69.562  1.00  0.00    -0.287 A  
HETATM   24  C   UNL     1      -8.572   6.380  69.964  1.00  0.00    -0.135 A  
HETATM   25  N   UNL     1      -8.222   6.682  68.689  1.00  0.00    -0.119 NA 
HETATM   26  C   UNL     1     -10.536   7.108  68.231  1.00  0.00    -0.235 A  
HETATM   27  C   UNL     1      -9.868   6.447  70.440  1.00  0.00    -0.169 A  
ENDBRANCH  12  21
ENDBRANCH  10  11
ENDBRANCH   7  10
TORSDOF 3
ENDMDL
MODEL       89
REMARK 921   NORMALIZED FREE ENERGY PREDICTED BY IDOCK:   -4.69 KCAL/MOL
REMARK 922        TOTAL FREE ENERGY PREDICTED BY IDOCK:   -6.32 KCAL/MOL
REMARK 923 INTER-LIGAND FREE ENERGY PREDICTED BY IDOCK:   -6.16 KCAL/MOL
REMARK 924 INTRA-LIGAND FREE ENERGY PREDICTED BY IDOCK:   -0.16 KCAL/MOL
REMARK 927      BINDING AFFINITY PREDICTED BY RF-SCORE:    0.00 PKD
ROOT
HETATM    1  C   UNL     1      -9.849  12.064  63.925  1.00  0.00    -0.240 C  
HETATM    2  N   UNL     1     -10.238  10.874  64.680  1.00  0.00    -0.325 NA 
HETATM    3  C   UNL     1      -9.061  10.062  65.063  1.00  0.00    -0.211 C  
HETATM    4  C   UNL     1      -8.210  10.665  66.197  1.00  0.00    -0.156 C  
HETATM    5  N   UNL     1      -9.039  11.002  67.350  1.00  0.00    -0.141 N  
HETATM    6  C   UNL     1     -10.202  11.838  67.044  1.00  0.00    -0.214 C  
HETATM    7  C   UNL     1      -8.884  10.301  68.530  1.00  0.00    -0.127 C  
HETATM    8  O   UNL     1      -8.102   9.371  68.668  1.00  0.00    -0.101 OA 
HETATM    9  C   UNL     1     -11.023  11.221  65.889  1.00  0.00    -0.157 C  
ENDROOT
BRANCH   7  10
HETATM   10  O   UNL     1      -9.671  10.782  69.521  1.00  0.00    -0.133 OA 
BRANCH  10  11
HETATM   11  C   UNL     1     -11.038  10.375  69.473  1.00  0.00    -0.264 C  
HETATM   12  N   UNL     1     -11.229   9.283  70.412  1.00  0.00    -0.246 N  
HETATM   13  C   UNL     1     -12.038   9.634  71.485  1.00  0.00    -0.401 C  
HETATM   14  C   UNL     1     -11.844  11.487  70.104  1.00  0.00    -0.356 A  
HETATM   15  N   UNL     1     -11.993  12.755  69.654  1.00  0.00    -0.310 NA 
HETATM   16  C   UNL     1     -12.404  11.042  71.284  1.00  0.00    -0.321 A  
HETATM   17  O   UNL     1     -12.446   8.935  72.394  1.00  0.00    -0.375 OA 
HETATM   18  C   UNL     1     -12.748  13.535  70.469  1.00  0.00    -0.157 A  
HETATM   19  N   UNL     1     -13.165  11.796  72.101  1.00  0.00    -0.414 NA 
HETATM   20  C   UNL     1     -13.320  13.067  71.656  1.00  0.00    -0.292 A  
BRANCH  12  21
HETATM   21  C   UNL     1     -10.866   7.976  70.072  1.00  0.00    -0.235 A  
HETATM   22 CL   UNL     1      -9.370   3.897  69.032  1.00  0.00    -0.222 Cl 
HETATM   23  C   UNL     1     -10.850   6.108  68.555  1.00  0.00    -0.389 A  
HETATM   24  C   UNL     1      -9.630   6.087  70.592  1.00  0.00    -0.173 A  
HETATM   25  N   UNL     1     -10.077   7.317  70.947  1.00  0.00    -0.189 NA 
HETATM   26  C   UNL     1     -11.282   7.397  68.876  1.00  0.00     0.197 A  
HETATM   27  C   UNL     1      -9.986   5.450  69.417  1.00  0.00    -0.210 A  
ENDBRANCH  12  21
ENDBRANCH  10  11
ENDBRANCH   7  10
TORSDOF 3
ENDMDL
MODEL       90
REMARK 921   NORMALIZED FREE ENERGY PREDICTED BY IDOCK:   -4.69 KCAL/MOL
REMARK 922        TOTAL FREE ENERGY PREDICTED BY IDOCK:   -6.32 KCAL/MOL
REMARK 923 INTER-LIGAND FREE ENERGY PREDICTED BY IDOCK:   -5.49 KCAL/MOL
REMARK 924 INTRA-LIGAND FREE ENERGY PREDICTED BY IDOCK:   -0.82 KCAL/MOL
REMARK 927      BINDING AFFINITY PREDICTED BY RF-SCORE:    0.00 PKD
ROOT
HETATM    1  C   UNL     1     -10.526   6.639  73.804  1.00  0.00    -0.333 C  
HETATM    2  N   UNL     1      -9.796   6.167  72.628  1.00  0.00    -0.167 NA 
HETATM    3  C   UNL     1     -10.692   5.483  71.667  1.00  0.00    -0.231 C  
HETATM    4  C   UNL     1     -11.620   6.426  70.878  1.00  0.00    -0.331 C  
HETATM    5  N   UNL     1     -10.860   7.498  70.245  1.00  0.00    -0.243 N  
HETATM    6  C   UNL     1      -9.980   8.241  71.151  1.00  0.00    -0.185 C  
HETATM    7  C   UNL     1     -10.766   7.548  68.868  1.00  0.00    -0.115 C  
HETATM    8  O   UNL     1     -11.262   6.713  68.125  1.00  0.00    -0.230 OA 
HETATM    9  C   UNL     1      -9.078   7.270  71.945  1.00  0.00    -0.133 C  
ENDROOT
BRANCH   7  10
HETATM   10  O   UNL     1     -10.092   8.641  68.437  1.00  0.00    -0.179 OA 
BRANCH  10  11
HETATM   11  C   UNL     1      -9.196   8.420  67.349  1.00  0.00    -0.140 C  
HETATM   12  N   UNL     1      -8.749   9.710  66.849  1.00  0.00    -0.130 N  
HETATM   13  C   UNL     1      -7.398   9.934  67.079  1.00  0.00    -0.091 C  
HETATM   14  C   UNL     1      -7.929   7.847  67.939  1.00  0.00    -0.128 A  
HETATM   15  N   UNL     1      -7.778   6.660  68.571  1.00  0.00    -0.104 NA 
HETATM   16  C   UNL     1      -6.896   8.750  67.789  1.00  0.00    -0.070 A  
HETATM   17  O   UNL     1      -6.708  10.873  66.724  1.00  0.00    -0.102 OA 
HETATM   18  C   UNL     1      -6.518   6.445  69.031  1.00  0.00    -0.043 A  
HETATM   19  N   UNL     1      -5.638   8.553  68.227  1.00  0.00    -0.034 NA 
HETATM   20  C   UNL     1      -5.479   7.365  68.861  1.00  0.00    -0.022 A  
BRANCH  12  21
HETATM   21  C   UNL     1      -9.553  10.461  65.986  1.00  0.00    -0.201 A  
HETATM   22 CL   UNL     1     -12.401  12.760  63.426  1.00  0.00    -0.583 Cl 
HETATM   23  C   UNL     1     -10.402  10.979  63.795  1.00  0.00    -0.427 A  
HETATM   24  C   UNL     1     -11.217  12.055  65.749  1.00  0.00    -0.334 A  
HETATM   25  N   UNL     1     -10.354  11.387  66.554  1.00  0.00    -0.228 NA 
HETATM   26  C   UNL     1      -9.542  10.241  64.611  1.00  0.00    -0.374 A  
HETATM   27  C   UNL     1     -11.276  11.885  64.378  1.00  0.00    -0.336 A  
ENDBRANCH  12  21
ENDBRANCH  10  11
ENDBRANCH   7  10
TORSDOF 3
ENDMDL
MODEL       91
REMARK 921   NORMALIZED FREE ENERGY PREDICTED BY IDOCK:   -4.65 KCAL/MOL
REMARK 922        TOTAL FREE ENERGY PREDICTED BY IDOCK:   -6.27 KCAL/MOL
REMARK 923 INTER-LIGAND FREE ENERGY PREDICTED BY IDOCK:   -5.41 KCAL/MOL
REMARK 924 INTRA-LIGAND FREE ENERGY PREDICTED BY IDOCK:   -0.86 KCAL/MOL
REMARK 927      BINDING AFFINITY PREDICTED BY RF-SCORE:    0.00 PKD
ROOT
HETATM    1  C   UNL     1     -12.678  14.146  65.449  1.00  0.00    -0.431 C  
HETATM    2  N   UNL     1     -11.332  13.874  64.945  1.00  0.00    -0.333 NA 
HETATM    3  C   UNL     1     -10.291  14.432  65.839  1.00  0.00    -0.314 C  
HETATM    4  C   UNL     1     -10.099  13.658  67.156  1.00  0.00    -0.245 C  
HETATM    5  N   UNL     1      -9.893  12.236  66.901  1.00  0.00    -0.206 N  
HETATM    6  C   UNL     1     -10.912  11.612  66.053  1.00  0.00    -0.286 C  
HETATM    7  C   UNL     1      -8.668  11.663  67.180  1.00  0.00    -0.164 C  
HETATM    8  O   UNL     1      -7.708  12.290  67.605  1.00  0.00    -0.123 OA 
HETATM    9  C   UNL     1     -11.100  12.423  64.751  1.00  0.00    -0.304 C  
ENDROOT
BRANCH   7  10
HETATM   10  O   UNL     1      -8.662  10.327  66.959  1.00  0.00    -0.129 OA 
BRANCH  10  11
HETATM   11  C   UNL     1      -8.096   9.534  68.002  1.00  0.00    -0.102 C  
HETATM   12  N   UNL     1      -9.113   8.615  68.487  1.00  0.00    -0.139 N  
HETATM   13  C   UNL     1      -8.820   7.289  68.193  1.00  0.00    -0.126 C  
HETATM   14  C   UNL     1      -7.104   8.601  67.348  1.00  0.00    -0.080 A  
HETATM   15  N   UNL     1      -5.962   8.933  66.703  1.00  0.00    -0.052 NA 
HETATM   16  C   UNL     1      -7.551   7.299  67.454  1.00  0.00    -0.105 A  
HETATM   17  O   UNL     1      -9.423   6.283  68.520  1.00  0.00    -0.124 OA 
HETATM   18  C   UNL     1      -5.301   7.867  66.182  1.00  0.00    -0.025 A  
HETATM   19  N   UNL     1      -6.907   6.226  66.954  1.00  0.00    -0.061 NA 
HETATM   20  C   UNL     1      -5.760   6.552  66.308  1.00  0.00    -0.014 A  
BRANCH  12  21
HETATM   21  C   UNL     1     -10.090   9.041  69.391  1.00  0.00    -0.198 A  
HETATM   22 CL   UNL     1     -13.162  10.732  72.158  1.00  0.00    -0.507 Cl 
HETATM   23  C   UNL     1     -10.959   9.261  71.625  1.00  0.00    -0.433 A  
HETATM   24  C   UNL     1     -12.027  10.259  69.753  1.00  0.00    -0.106 A  
HETATM   25  N   UNL     1     -11.122   9.748  68.883  1.00  0.00    -0.152 NA 
HETATM   26  C   UNL     1      -9.985   8.768  70.752  1.00  0.00    -0.263 A  
HETATM   27  C   UNL     1     -11.986  10.044  71.119  1.00  0.00    -0.392 A  
ENDBRANCH  12  21
ENDBRANCH  10  11
ENDBRANCH   7  10
TORSDOF 3
ENDMDL
MODEL       92
REMARK 921   NORMALIZED FREE ENERGY PREDICTED BY IDOCK:   -4.63 KCAL/MOL
REMARK 922        TOTAL FREE ENERGY PREDICTED BY IDOCK:   -6.25 KCAL/MOL
REMARK 923 INTER-LIGAND FREE ENERGY PREDICTED BY IDOCK:   -6.94 KCAL/MOL
REMARK 924 INTRA-LIGAND FREE ENERGY PREDICTED BY IDOCK:    0.69 KCAL/MOL
REMARK 927      BINDING AFFINITY PREDICTED BY RF-SCORE:    0.00 PKD
ROOT
HETATM    1  C   UNL     1     -11.210  12.507  64.326  1.00  0.00    -0.355 C  
HETATM    2  N   UNL     1     -11.538  13.246  65.544  1.00  0.00    -0.316 NA 
HETATM    3  C   UNL     1     -10.996  12.579  66.750  1.00  0.00    -0.265 C  
HETATM    4  C   UNL     1      -9.471  12.709  66.921  1.00  0.00    -0.229 C  
HETATM    5  N   UNL     1      -9.053  14.105  66.838  1.00  0.00    -0.241 N  
HETATM    6  C   UNL     1      -9.525  14.814  65.646  1.00  0.00    -0.090 C  
HETATM    7  C   UNL     1      -8.547  14.734  67.958  1.00  0.00    -0.166 C  
HETATM    8  O   UNL     1      -8.454  14.198  69.052  1.00  0.00    -0.054 OA 
HETATM    9  C   UNL     1     -11.053  14.646  65.487  1.00  0.00    -0.345 C  
ENDROOT
BRANCH   7  10
HETATM   10  O   UNL     1      -8.138  15.999  67.697  1.00  0.00    -0.141 OA 
BRANCH  10  11
HETATM   11  C   UNL     1      -9.170  16.918  67.343  1.00  0.00    -0.222 C  
HETATM   12  N   UNL     1      -9.790  17.410  68.562  1.00  0.00    -0.303 N  
HETATM   13  C   UNL     1      -9.545  18.760  68.781  1.00  0.00    -0.364 C  
HETATM   14  C   UNL     1      -8.486  18.154  66.809  1.00  0.00    -0.259 A  
HETATM   15  N   UNL     1      -7.728  18.260  65.692  1.00  0.00    -0.508 NA 
HETATM   16  C   UNL     1      -8.700  19.213  67.668  1.00  0.00    -0.296 A  
HETATM   17  O   UNL     1      -9.977  19.481  69.662  1.00  0.00    -0.239 OA 
HETATM   18  C   UNL     1      -7.212  19.501  65.500  1.00  0.00    -0.186 A  
HETATM   19  N   UNL     1      -8.207  20.454  67.492  1.00  0.00    -0.310 NA 
HETATM   20  C   UNL     1      -7.447  20.567  66.375  1.00  0.00    -0.143 A  
BRANCH  12  21
HETATM   21  C   UNL     1     -10.750  16.648  69.235  1.00  0.00    -0.337 A  
HETATM   22 CL   UNL     1     -13.555  14.088  71.587  1.00  0.00    -0.429 Cl 
HETATM   23  C   UNL     1     -12.496  14.992  69.270  1.00  0.00    -0.017 A  
HETATM   24  C   UNL     1     -11.657  15.981  71.259  1.00  0.00    -0.449 A  
HETATM   25  N   UNL     1     -10.805  16.785  70.577  1.00  0.00     0.055 NA 
HETATM   26  C   UNL     1     -11.589  15.772  68.550  1.00  0.00    -0.367 A  
HETATM   27  C   UNL     1     -12.512  15.078  70.655  1.00  0.00    -0.365 A  
ENDBRANCH  12  21
ENDBRANCH  10  11
ENDBRANCH   7  10
TORSDOF 3
ENDMDL
MODEL       93
REMARK 921   NORMALIZED FREE ENERGY PREDICTED BY IDOCK:   -4.61 KCAL/MOL
REMARK 922        TOTAL FREE ENERGY PREDICTED BY IDOCK:   -6.23 KCAL/MOL
REMARK 923 INTER-LIGAND FREE ENERGY PREDICTED BY IDOCK:   -5.50 KCAL/MOL
REMARK 924 INTRA-LIGAND FREE ENERGY PREDICTED BY IDOCK:   -0.73 KCAL/MOL
REMARK 927      BINDING AFFINITY PREDICTED BY RF-SCORE:    0.00 PKD
ROOT
HETATM    1  C   UNL     1      -8.457  17.904  68.122  1.00  0.00    -0.267 C  
HETATM    2  N   UNL     1      -7.314  17.061  67.771  1.00  0.00    -0.158 NA 
HETATM    3  C   UNL     1      -6.645  16.519  68.975  1.00  0.00    -0.193 C  
HETATM    4  C   UNL     1      -7.423  15.398  69.689  1.00  0.00    -0.170 C  
HETATM    5  N   UNL     1      -7.795  14.343  68.752  1.00  0.00    -0.139 N  
HETATM    6  C   UNL     1      -8.497  14.809  67.554  1.00  0.00    -0.192 C  
HETATM    7  C   UNL     1      -7.225  13.091  68.872  1.00  0.00    -0.047 C  
HETATM    8  O   UNL     1      -6.382  12.808  69.711  1.00  0.00    -0.122 OA 
HETATM    9  C   UNL     1      -7.707  15.948  66.873  1.00  0.00    -0.233 C  
ENDROOT
BRANCH   7  10
HETATM   10  O   UNL     1      -7.729  12.207  67.978  1.00  0.00    -0.114 OA 
BRANCH  10  11
HETATM   11  C   UNL     1      -8.957  11.586  68.353  1.00  0.00    -0.173 C  
HETATM   12  N   UNL     1      -9.681  11.224  67.145  1.00  0.00    -0.180 N  
HETATM   13  C   UNL     1      -9.780   9.850  66.971  1.00  0.00    -0.182 C  
HETATM   14  C   UNL     1      -8.601  10.236  68.931  1.00  0.00    -0.150 A  
HETATM   15  N   UNL     1      -7.893   9.982  70.056  1.00  0.00    -0.174 NA 
HETATM   16  C   UNL     1      -9.073   9.237  68.104  1.00  0.00    -0.128 A  
HETATM   17  O   UNL     1     -10.378   9.230  66.111  1.00  0.00    -0.229 OA 
HETATM   18  C   UNL     1      -7.701   8.658  70.291  1.00  0.00    -0.083 A  
HETATM   19  N   UNL     1      -8.904   7.919  68.323  1.00  0.00    -0.130 NA 
HETATM   20  C   UNL     1      -8.195   7.657  69.449  1.00  0.00    -0.129 A  
BRANCH  12  21
HETATM   21  C   UNL     1     -10.422  12.179  66.442  1.00  0.00    -0.230 A  
HETATM   22 CL   UNL     1     -12.485  15.404  64.140  1.00  0.00    -0.149 Cl 
HETATM   23  C   UNL     1     -12.186  13.809  66.303  1.00  0.00    -0.489 A  
HETATM   24  C   UNL     1     -10.655  13.454  64.523  1.00  0.00    -0.425 A  
HETATM   25  N   UNL     1     -10.016  12.459  65.186  1.00  0.00    -0.237 NA 
HETATM   26  C   UNL     1     -11.510  12.824  67.025  1.00  0.00    -0.397 A  
HETATM   27  C   UNL     1     -11.734  14.150  65.036  1.00  0.00    -0.376 A  
ENDBRANCH  12  21
ENDBRANCH  10  11
ENDBRANCH   7  10
TORSDOF 3
ENDMDL
MODEL       94
REMARK 921   NORMALIZED FREE ENERGY PREDICTED BY IDOCK:   -4.60 KCAL/MOL
REMARK 922        TOTAL FREE ENERGY PREDICTED BY IDOCK:   -6.21 KCAL/MOL
REMARK 923 INTER-LIGAND FREE ENERGY PREDICTED BY IDOCK:   -5.15 KCAL/MOL
REMARK 924 INTRA-LIGAND FREE ENERGY PREDICTED BY IDOCK:   -1.05 KCAL/MOL
REMARK 927      BINDING AFFINITY PREDICTED BY RF-SCORE:    0.00 PKD
ROOT
HETATM    1  C   UNL     1     -11.403  13.022  69.839  1.00  0.00     0.033 C  
HETATM    2  N   UNL     1     -12.148  11.846  69.390  1.00  0.00    -0.256 NA 
HETATM    3  C   UNL     1     -11.960  11.602  67.942  1.00  0.00    -0.089 C  
HETATM    4  C   UNL     1     -10.578  11.038  67.563  1.00  0.00    -0.227 C  
HETATM    5  N   UNL     1     -10.259   9.858  68.359  1.00  0.00    -0.170 N  
HETATM    6  C   UNL     1     -10.388  10.044  69.806  1.00  0.00    -0.255 C  
HETATM    7  C   UNL     1     -10.175   8.623  67.747  1.00  0.00    -0.225 C  
HETATM    8  O   UNL     1     -10.388   8.441  66.556  1.00  0.00    -0.285 OA 
HETATM    9  C   UNL     1     -11.774  10.633  70.155  1.00  0.00    -0.332 C  
ENDROOT
BRANCH   7  10
HETATM   10  O   UNL     1      -9.800   7.646  68.606  1.00  0.00    -0.163 OA 
BRANCH  10  11
HETATM   11  C   UNL     1     -10.652   6.502  68.647  1.00  0.00    -0.245 C  
HETATM   12  N   UNL     1      -9.856   5.322  68.351  1.00  0.00    -0.145 N  
HETATM   13  C   UNL     1      -9.732   4.472  69.443  1.00  0.00    -0.202 C  
HETATM   14  C   UNL     1     -11.020   6.287  70.096  1.00  0.00    -0.347 A  
HETATM   15  N   UNL     1     -11.743   7.107  70.893  1.00  0.00    -0.315 NA 
HETATM   16  C   UNL     1     -10.461   5.108  70.548  1.00  0.00    -0.208 A  
HETATM   17  O   UNL     1      -9.198   3.379  69.503  1.00  0.00    -0.126 OA 
HETATM   18  C   UNL     1     -11.869   6.655  72.168  1.00  0.00    -0.298 A  
HETATM   19  N   UNL     1     -10.582   4.636  71.803  1.00  0.00    -0.077 NA 
HETATM   20  C   UNL     1     -11.307   5.453  72.608  1.00  0.00    -0.266 A  
BRANCH  12  21
HETATM   21  C   UNL     1      -9.533   4.989  67.032  1.00  0.00    -0.142 A  
HETATM   22 CL   UNL     1      -8.340   4.240  62.793  1.00  0.00    -0.083 Cl 
HETATM   23  C   UNL     1     -10.152   4.350  64.796  1.00  0.00    -0.102 A  
HETATM   24  C   UNL     1      -7.907   4.846  65.389  1.00  0.00    -0.091 A  
HETATM   25  N   UNL     1      -8.230   5.065  66.687  1.00  0.00    -0.108 NA 
HETATM   26  C   UNL     1     -10.516   4.622  66.117  1.00  0.00    -0.281 A  
HETATM   27  C   UNL     1      -8.825   4.491  64.418  1.00  0.00    -0.152 A  
ENDBRANCH  12  21
ENDBRANCH  10  11
ENDBRANCH   7  10
TORSDOF 3
ENDMDL
MODEL       95
REMARK 921   NORMALIZED FREE ENERGY PREDICTED BY IDOCK:   -4.59 KCAL/MOL
REMARK 922        TOTAL FREE ENERGY PREDICTED BY IDOCK:   -6.20 KCAL/MOL
REMARK 923 INTER-LIGAND FREE ENERGY PREDICTED BY IDOCK:   -6.17 KCAL/MOL
REMARK 924 INTRA-LIGAND FREE ENERGY PREDICTED BY IDOCK:   -0.03 KCAL/MOL
REMARK 927      BINDING AFFINITY PREDICTED BY RF-SCORE:    0.00 PKD
ROOT
HETATM    1  C   UNL     1      -9.074  11.299  63.005  1.00  0.00    -0.236 C  
HETATM    2  N   UNL     1     -10.153  10.866  63.893  1.00  0.00    -0.336 NA 
HETATM    3  C   UNL     1      -9.772   9.665  64.670  1.00  0.00     0.030 C  
HETATM    4  C   UNL     1      -8.765   9.931  65.804  1.00  0.00    -0.141 C  
HETATM    5  N   UNL     1      -9.223  11.014  66.667  1.00  0.00    -0.164 N  
HETATM    6  C   UNL     1      -9.581  12.248  65.963  1.00  0.00    -0.222 C  
HETATM    7  C   UNL     1      -9.583  10.742  67.972  1.00  0.00    -0.163 C  
HETATM    8  O   UNL     1      -9.575   9.619  68.457  1.00  0.00    -0.143 OA 
HETATM    9  C   UNL     1     -10.573  11.948  64.816  1.00  0.00    -0.299 C  
ENDROOT
BRANCH   7  10
HETATM   10  O   UNL     1      -9.914  11.861  68.660  1.00  0.00    -0.207 OA 
BRANCH  10  11
HETATM   11  C   UNL     1     -11.305  12.178  68.686  1.00  0.00    -0.280 C  
HETATM   12  N   UNL     1     -11.800  11.974  70.037  1.00  0.00    -0.331 N  
HETATM   13  C   UNL     1     -12.173  13.160  70.656  1.00  0.00    -0.321 C  
HETATM   14  C   UNL     1     -11.411  13.677  68.527  1.00  0.00    -0.312 A  
HETATM   15  N   UNL     1     -11.054  14.419  67.453  1.00  0.00    -0.298 NA 
HETATM   16  C   UNL     1     -11.902  14.234  69.690  1.00  0.00    -0.318 A  
HETATM   17  O   UNL     1     -12.688  13.323  71.747  1.00  0.00    -0.279 OA 
HETATM   18  C   UNL     1     -11.232  15.754  67.631  1.00  0.00    -0.246 A  
HETATM   19  N   UNL     1     -12.097  15.553  69.884  1.00  0.00    -0.359 NA 
HETATM   20  C   UNL     1     -11.742  16.303  68.812  1.00  0.00    -0.138 A  
BRANCH  12  21
HETATM   21  C   UNL     1     -12.121  10.693  70.496  1.00  0.00    -0.355 A  
HETATM   22 CL   UNL     1     -13.404   6.748  72.153  1.00  0.00    -0.091 Cl 
HETATM   23  C   UNL     1     -11.546   8.629  71.592  1.00  0.00    -0.379 A  
HETATM   24  C   UNL     1     -13.760   9.100  70.873  1.00  0.00     0.140 A  
HETATM   25  N   UNL     1     -13.402  10.296  70.344  1.00  0.00    -0.021 NA 
HETATM   26  C   UNL     1     -11.166   9.880  71.101  1.00  0.00    -0.404 A  
HETATM   27  C   UNL     1     -12.875   8.242  71.500  1.00  0.00    -0.293 A  
ENDBRANCH  12  21
ENDBRANCH  10  11
ENDBRANCH   7  10
TORSDOF 3
ENDMDL
MODEL       96
REMARK 921   NORMALIZED FREE ENERGY PREDICTED BY IDOCK:   -4.57 KCAL/MOL
REMARK 922        TOTAL FREE ENERGY PREDICTED BY IDOCK:   -6.18 KCAL/MOL
REMARK 923 INTER-LIGAND FREE ENERGY PREDICTED BY IDOCK:   -5.78 KCAL/MOL
REMARK 924 INTRA-LIGAND FREE ENERGY PREDICTED BY IDOCK:   -0.40 KCAL/MOL
REMARK 927      BINDING AFFINITY PREDICTED BY RF-SCORE:    0.00 PKD
ROOT
HETATM    1  C   UNL     1      -7.944   4.168  66.352  1.00  0.00    -0.098 C  
HETATM    2  N   UNL     1      -7.865   4.631  67.737  1.00  0.00    -0.085 NA 
HETATM    3  C   UNL     1      -6.842   5.689  67.901  1.00  0.00    -0.064 C  
HETATM    4  C   UNL     1      -7.244   7.060  67.325  1.00  0.00    -0.089 C  
HETATM    5  N   UNL     1      -8.547   7.478  67.832  1.00  0.00    -0.122 N  
HETATM    6  C   UNL     1      -9.614   6.489  67.666  1.00  0.00    -0.122 C  
HETATM    7  C   UNL     1      -8.634   8.570  68.674  1.00  0.00    -0.135 C  
HETATM    8  O   UNL     1      -7.663   9.206  69.060  1.00  0.00    -0.076 OA 
HETATM    9  C   UNL     1      -9.175   5.119  68.230  1.00  0.00    -0.117 C  
ENDROOT
BRANCH   7  10
HETATM   10  O   UNL     1      -9.914   8.872  68.995  1.00  0.00    -0.179 OA 
BRANCH  10  11
HETATM   11  C   UNL     1     -10.136   9.242  70.355  1.00  0.00    -0.236 C  
HETATM   12  N   UNL     1     -11.419   9.918  70.448  1.00  0.00    -0.282 N  
HETATM   13  C   UNL     1     -12.360   9.187  71.163  1.00  0.00    -0.267 C  
HETATM   14  C   UNL     1     -10.391   7.961  71.116  1.00  0.00    -0.200 A  
HETATM   15  N   UNL     1      -9.529   6.938  71.321  1.00  0.00    -0.165 NA 
HETATM   16  C   UNL     1     -11.696   7.939  71.564  1.00  0.00    -0.283 A  
HETATM   17  O   UNL     1     -13.492   9.503  71.479  1.00  0.00    -0.376 OA 
HETATM   18  C   UNL     1     -10.070   5.901  72.011  1.00  0.00    -0.189 A  
HETATM   19  N   UNL     1     -12.250   6.927  72.259  1.00  0.00    -0.197 NA 
HETATM   20  C   UNL     1     -11.391   5.898  72.469  1.00  0.00    -0.304 A  
BRANCH  12  21
HETATM   21  C   UNL     1     -11.544  11.266  70.100  1.00  0.00    -0.305 A  
HETATM   22 CL   UNL     1     -11.590  15.581  68.944  1.00  0.00    -0.362 Cl 
HETATM   23  C   UNL     1     -12.218  13.525  70.583  1.00  0.00    -0.434 A  
HETATM   24  C   UNL     1     -11.030  12.960  68.606  1.00  0.00    -0.261 A  
HETATM   25  N   UNL     1     -11.012  11.641  68.917  1.00  0.00    -0.221 NA 
HETATM   26  C   UNL     1     -12.165  12.179  70.949  1.00  0.00    -0.310 A  
HETATM   27  C   UNL     1     -11.616  13.929  69.400  1.00  0.00    -0.297 A  
ENDBRANCH  12  21
ENDBRANCH  10  11
ENDBRANCH   7  10
TORSDOF 3
ENDMDL
MODEL       97
REMARK 921   NORMALIZED FREE ENERGY PREDICTED BY IDOCK:   -4.56 KCAL/MOL
REMARK 922        TOTAL FREE ENERGY PREDICTED BY IDOCK:   -6.16 KCAL/MOL
REMARK 923 INTER-LIGAND FREE ENERGY PREDICTED BY IDOCK:   -7.87 KCAL/MOL
REMARK 924 INTRA-LIGAND FREE ENERGY PREDICTED BY IDOCK:    1.71 KCAL/MOL
REMARK 927      BINDING AFFINITY PREDICTED BY RF-SCORE:    0.00 PKD
ROOT
HETATM    1  C   UNL     1      -8.324  19.331  68.784  1.00  0.00    -0.351 C  
HETATM    2  N   UNL     1      -9.497  18.463  68.693  1.00  0.00    -0.338 NA 
HETATM    3  C   UNL     1     -10.084  18.481  67.333  1.00  0.00    -0.352 C  
HETATM    4  C   UNL     1      -9.269  17.715  66.276  1.00  0.00    -0.190 C  
HETATM    5  N   UNL     1      -8.976  16.358  66.724  1.00  0.00    -0.218 N  
HETATM    6  C   UNL     1      -8.357  16.271  68.048  1.00  0.00    -0.165 C  
HETATM    7  C   UNL     1      -9.549  15.284  66.071  1.00  0.00    -0.338 C  
HETATM    8  O   UNL     1     -10.333  15.398  65.139  1.00  0.00    -0.382 OA 
HETATM    9  C   UNL     1      -9.183  17.068  69.084  1.00  0.00    -0.073 C  
ENDROOT
BRANCH   7  10
HETATM   10  O   UNL     1      -9.120  14.095  66.559  1.00  0.00    -0.246 OA 
BRANCH  10  11
HETATM   11  C   UNL     1     -10.127  13.096  66.713  1.00  0.00    -0.253 C  
HETATM   12  N   UNL     1     -11.401  13.754  66.947  1.00  0.00    -0.317 N  
HETATM   13  C   UNL     1     -12.295  13.581  65.898  1.00  0.00    -0.456 C  
HETATM   14  C   UNL     1     -10.331  12.473  65.352  1.00  0.00    -0.282 A  
HETATM   15  N   UNL     1      -9.439  11.754  64.632  1.00  0.00    -0.066 NA 
HETATM   16  C   UNL     1     -11.593  12.781  64.885  1.00  0.00    -0.330 A  
HETATM   17  O   UNL     1     -13.455  13.939  65.816  1.00  0.00    -0.464 OA 
HETATM   18  C   UNL     1      -9.908  11.363  63.419  1.00  0.00    -0.396 A  
HETATM   19  N   UNL     1     -12.082  12.395  63.691  1.00  0.00    -0.513 NA 
HETATM   20  C   UNL     1     -11.194  11.673  62.964  1.00  0.00     0.100 A  
BRANCH  12  21
HETATM   21  C   UNL     1     -11.736  14.234  68.217  1.00  0.00    -0.342 A  
HETATM   22 CL   UNL     1     -12.534  15.994  72.245  1.00  0.00    -0.530 Cl 
HETATM   23  C   UNL     1     -12.115  13.912  70.572  1.00  0.00    -0.426 A  
HETATM   24  C   UNL     1     -12.162  16.065  69.570  1.00  0.00     0.019 A  
HETATM   25  N   UNL     1     -11.938  15.564  68.331  1.00  0.00    -0.216 NA 
HETATM   26  C   UNL     1     -11.830  13.380  69.312  1.00  0.00    -0.385 A  
HETATM   27  C   UNL     1     -12.257  15.286  70.709  1.00  0.00    -0.360 A  
ENDBRANCH  12  21
ENDBRANCH  10  11
ENDBRANCH   7  10
TORSDOF 3
ENDMDL
MODEL       98
REMARK 921   NORMALIZED FREE ENERGY PREDICTED BY IDOCK:   -4.52 KCAL/MOL
REMARK 922        TOTAL FREE ENERGY PREDICTED BY IDOCK:   -6.12 KCAL/MOL
REMARK 923 INTER-LIGAND FREE ENERGY PREDICTED BY IDOCK:   -5.37 KCAL/MOL
REMARK 924 INTRA-LIGAND FREE ENERGY PREDICTED BY IDOCK:   -0.74 KCAL/MOL
REMARK 927      BINDING AFFINITY PREDICTED BY RF-SCORE:    0.00 PKD
ROOT
HETATM    1  C   UNL     1     -11.303  13.657  66.958  1.00  0.00    -0.324 C  
HETATM    2  N   UNL     1     -10.732  13.565  68.301  1.00  0.00    -0.250 NA 
HETATM    3  C   UNL     1     -11.769  13.265  69.315  1.00  0.00    -0.326 C  
HETATM    4  C   UNL     1     -12.285  11.814  69.290  1.00  0.00    -0.140 C  
HETATM    5  N   UNL     1     -11.179  10.864  69.344  1.00  0.00    -0.250 N  
HETATM    6  C   UNL     1     -10.136  11.082  68.340  1.00  0.00    -0.184 C  
HETATM    7  C   UNL     1     -11.018  10.066  70.460  1.00  0.00    -0.326 C  
HETATM    8  O   UNL     1     -11.739  10.127  71.446  1.00  0.00    -0.360 OA 
HETATM    9  C   UNL     1      -9.654  12.550  68.372  1.00  0.00    -0.176 C  
ENDROOT
BRANCH   7  10
HETATM   10  O   UNL     1      -9.994   9.191  70.324  1.00  0.00    -0.182 OA 
BRANCH  10  11
HETATM   11  C   UNL     1     -10.303   7.988  69.621  1.00  0.00    -0.220 C  
HETATM   12  N   UNL     1      -9.085   7.484  69.009  1.00  0.00    -0.141 N  
HETATM   13  C   UNL     1      -8.658   6.288  69.572  1.00  0.00    -0.132 C  
HETATM   14  C   UNL     1     -10.597   6.938  70.666  1.00  0.00    -0.222 A  
HETATM   15  N   UNL     1     -11.618   6.922  71.554  1.00  0.00    -0.273 NA 
HETATM   16  C   UNL     1      -9.619   5.965  70.635  1.00  0.00    -0.173 A  
HETATM   17  O   UNL     1      -7.725   5.579  69.242  1.00  0.00    -0.084 OA 
HETATM   18  C   UNL     1     -11.588   5.859  72.399  1.00  0.00    -0.288 A  
HETATM   19  N   UNL     1      -9.576   4.897  71.455  1.00  0.00    -0.154 NA 
HETATM   20  C   UNL     1     -10.596   4.874  72.347  1.00  0.00    -0.200 A  
BRANCH  12  21
HETATM   21  C   UNL     1      -8.612   8.021  67.808  1.00  0.00    -0.128 A  
HETATM   22 CL   UNL     1      -7.076  10.050  64.137  1.00  0.00    -0.129 Cl 
HETATM   23  C   UNL     1      -8.852   8.503  65.463  1.00  0.00    -0.196 A  
HETATM   24  C   UNL     1      -7.005   9.293  66.729  1.00  0.00    -0.081 A  
HETATM   25  N   UNL     1      -7.432   8.677  67.858  1.00  0.00    -0.095 NA 
HETATM   26  C   UNL     1      -9.339   7.904  66.627  1.00  0.00    -0.244 A  
HETATM   27  C   UNL     1      -7.675   9.235  65.521  1.00  0.00    -0.095 A  
ENDBRANCH  12  21
ENDBRANCH  10  11
ENDBRANCH   7  10
TORSDOF 3
ENDMDL
MODEL       99
REMARK 921   NORMALIZED FREE ENERGY PREDICTED BY IDOCK:   -4.44 KCAL/MOL
REMARK 922        TOTAL FREE ENERGY PREDICTED BY IDOCK:   -6.02 KCAL/MOL
REMARK 923 INTER-LIGAND FREE ENERGY PREDICTED BY IDOCK:   -5.12 KCAL/MOL
REMARK 924 INTRA-LIGAND FREE ENERGY PREDICTED BY IDOCK:   -0.90 KCAL/MOL
REMARK 927      BINDING AFFINITY PREDICTED BY RF-SCORE:    0.00 PKD
ROOT
HETATM    1  C   UNL     1      -9.201   8.864  67.861  1.00  0.00    -0.138 C  
HETATM    2  N   UNL     1      -9.855  10.033  68.447  1.00  0.00    -0.151 NA 
HETATM    3  C   UNL     1      -8.980  10.712  69.430  1.00  0.00    -0.029 C  
HETATM    4  C   UNL     1      -7.817  11.508  68.808  1.00  0.00    -0.117 C  
HETATM    5  N   UNL     1      -8.302  12.428  67.785  1.00  0.00    -0.153 N  
HETATM    6  C   UNL     1      -9.145  11.811  66.757  1.00  0.00    -0.194 C  
HETATM    7  C   UNL     1      -8.222  13.790  67.997  1.00  0.00    -0.164 C  
HETATM    8  O   UNL     1      -7.790  14.291  69.026  1.00  0.00    -0.121 OA 
HETATM    9  C   UNL     1     -10.287  11.000  67.410  1.00  0.00    -0.207 C  
ENDROOT
BRANCH   7  10
HETATM   10  O   UNL     1      -8.643  14.504  66.926  1.00  0.00    -0.216 OA 
BRANCH  10  11
HETATM   11  C   UNL     1      -9.695  15.433  67.183  1.00  0.00    -0.216 C  
HETATM   12  N   UNL     1      -9.270  16.749  66.735  1.00  0.00    -0.232 N  
HETATM   13  C   UNL     1      -9.999  17.205  65.644  1.00  0.00    -0.015 C  
HETATM   14  C   UNL     1     -10.808  15.107  66.215  1.00  0.00    -0.333 A  
HETATM   15  N   UNL     1     -11.547  13.975  66.158  1.00  0.00    -0.353 NA 
HETATM   16  C   UNL     1     -10.959  16.143  65.315  1.00  0.00    -0.270 A  
HETATM   17  O   UNL     1      -9.941  18.285  65.084  1.00  0.00     0.349 OA 
HETATM   18  C   UNL     1     -12.448  13.963  65.143  1.00  0.00    -0.453 A  
HETATM   19  N   UNL     1     -11.853  16.156  64.307  1.00  0.00    -0.663 NA 
HETATM   20  C   UNL     1     -12.597  15.025  64.245  1.00  0.00     0.076 A  
BRANCH  12  21
HETATM   21  C   UNL     1      -8.430  17.538  67.527  1.00  0.00    -0.213 A  
HETATM   22 CL   UNL     1      -5.598  19.757  70.174  1.00  0.00    -0.270 Cl 
HETATM   23  C   UNL     1      -8.069  19.195  69.234  1.00  0.00    -0.061 A  
HETATM   24  C   UNL     1      -6.273  18.014  68.224  1.00  0.00    -0.183 A  
HETATM   25  N   UNL     1      -7.102  17.335  67.394  1.00  0.00    -0.156 NA 
HETATM   26  C   UNL     1      -8.946  18.468  68.426  1.00  0.00    -0.346 A  
HETATM   27  C   UNL     1      -6.707  18.944  69.151  1.00  0.00    -0.297 A  
ENDBRANCH  12  21
ENDBRANCH  10  11
ENDBRANCH   7  10
TORSDOF 3
ENDMDL
MODEL      100
REMARK 921   NORMALIZED FREE ENERGY PREDICTED BY IDOCK:   -4.43 KCAL/MOL
REMARK 922        TOTAL FREE ENERGY PREDICTED BY IDOCK:   -6.02 KCAL/MOL
REMARK 923 INTER-LIGAND FREE ENERGY PREDICTED BY IDOCK:   -5.56 KCAL/MOL
REMARK 924 INTRA-LIGAND FREE ENERGY PREDICTED BY IDOCK:   -0.46 KCAL/MOL
REMARK 927      BINDING AFFINITY PREDICTED BY RF-SCORE:    0.00 PKD
ROOT
HETATM    1  C   UNL     1     -10.269  19.226  66.607  1.00  0.00    -0.421 C  
HETATM    2  N   UNL     1      -9.447  18.500  67.575  1.00  0.00    -0.275 NA 
HETATM    3  C   UNL     1     -10.237  18.079  68.754  1.00  0.00    -0.354 C  
HETATM    4  C   UNL     1     -11.201  16.907  68.492  1.00  0.00    -0.112 C  
HETATM    5  N   UNL     1     -10.503  15.784  67.876  1.00  0.00    -0.263 N  
HETATM    6  C   UNL     1      -9.732  16.126  66.678  1.00  0.00    -0.244 C  
HETATM    7  C   UNL     1     -10.348  14.606  68.580  1.00  0.00    -0.246 C  
HETATM    8  O   UNL     1     -10.737  14.448  69.729  1.00  0.00    -0.134 OA 
HETATM    9  C   UNL     1      -8.792  17.319  66.964  1.00  0.00    -0.228 C  
ENDROOT
BRANCH   7  10
HETATM   10  O   UNL     1      -9.746  13.641  67.844  1.00  0.00    -0.219 OA 
BRANCH  10  11
HETATM   11  C   UNL     1      -8.669  12.960  68.487  1.00  0.00    -0.038 C  
HETATM   12  N   UNL     1      -8.168  11.935  67.587  1.00  0.00    -0.139 N  
HETATM   13  C   UNL     1      -6.882  12.203  67.133  1.00  0.00    -0.119 C  
HETATM   14  C   UNL     1      -7.514  13.932  68.544  1.00  0.00    -0.122 A  
HETATM   15  N   UNL     1      -7.452  15.100  69.225  1.00  0.00    -0.178 NA 
HETATM   16  C   UNL     1      -6.489  13.484  67.736  1.00  0.00    -0.170 A  
HETATM   17  O   UNL     1      -6.160  11.514  66.435  1.00  0.00    -0.128 OA 
HETATM   18  C   UNL     1      -6.288  15.775  69.042  1.00  0.00    -0.126 A  
HETATM   19  N   UNL     1      -5.323  14.131  67.548  1.00  0.00    -0.339 NA 
HETATM   20  C   UNL     1      -5.253  15.302  68.229  1.00  0.00    -0.111 A  
BRANCH  12  21
HETATM   21  C   UNL     1      -8.824  10.706  67.466  1.00  0.00    -0.132 A  
HETATM   22 CL   UNL     1     -11.150   6.941  66.862  1.00  0.00    -0.378 Cl 
HETATM   23  C   UNL     1      -9.969   8.813  68.413  1.00  0.00    -0.200 A  
HETATM   24  C   UNL     1      -9.744   9.106  66.067  1.00  0.00    -0.287 A  
HETATM   25  N   UNL     1      -9.021  10.243  66.213  1.00  0.00    -0.150 NA 
HETATM   26  C   UNL     1      -9.271  10.011  68.586  1.00  0.00    -0.152 A  
HETATM   27  C   UNL     1     -10.234   8.365  67.127  1.00  0.00    -0.292 A  
ENDBRANCH  12  21
ENDBRANCH  10  11
ENDBRANCH   7  10
TORSDOF 3
ENDMDL
MODEL      101
REMARK 921   NORMALIZED FREE ENERGY PREDICTED BY IDOCK:   -4.43 KCAL/MOL
REMARK 922        TOTAL FREE ENERGY PREDICTED BY IDOCK:   -6.02 KCAL/MOL
REMARK 923 INTER-LIGAND FREE ENERGY PREDICTED BY IDOCK:   -5.31 KCAL/MOL
REMARK 924 INTRA-LIGAND FREE ENERGY PREDICTED BY IDOCK:   -0.71 KCAL/MOL
REMARK 927      BINDING AFFINITY PREDICTED BY RF-SCORE:    0.00 PKD
ROOT
HETATM    1  C   UNL     1     -11.123  13.212  69.480  1.00  0.00    -0.003 C  
HETATM    2  N   UNL     1     -11.747  12.685  68.267  1.00  0.00    -0.328 NA 
HETATM    3  C   UNL     1     -10.913  12.937  67.070  1.00  0.00    -0.262 C  
HETATM    4  C   UNL     1      -9.656  12.052  66.970  1.00  0.00    -0.195 C  
HETATM    5  N   UNL     1      -9.999  10.640  67.106  1.00  0.00    -0.189 N  
HETATM    6  C   UNL     1     -10.793  10.316  68.293  1.00  0.00    -0.255 C  
HETATM    7  C   UNL     1      -9.849   9.793  66.026  1.00  0.00    -0.274 C  
HETATM    8  O   UNL     1      -9.471  10.162  64.923  1.00  0.00    -0.242 OA 
HETATM    9  C   UNL     1     -12.033  11.234  68.381  1.00  0.00    -0.185 C  
ENDROOT
BRANCH   7  10
HETATM   10  O   UNL     1     -10.138   8.507  66.336  1.00  0.00    -0.279 OA 
BRANCH  10  11
HETATM   11  C   UNL     1      -9.039   7.726  66.802  1.00  0.00    -0.154 C  
HETATM   12  N   UNL     1      -9.556   6.640  67.618  1.00  0.00    -0.123 N  
HETATM   13  C   UNL     1      -9.367   5.393  67.036  1.00  0.00    -0.121 C  
HETATM   14  C   UNL     1      -8.489   6.991  65.602  1.00  0.00    -0.138 A  
HETATM   15  N   UNL     1      -7.906   7.526  64.503  1.00  0.00    -0.126 NA 
HETATM   16  C   UNL     1      -8.704   5.636  65.747  1.00  0.00    -0.150 A  
HETATM   17  O   UNL     1      -9.617   4.292  67.490  1.00  0.00    -0.166 OA 
HETATM   18  C   UNL     1      -7.552   6.604  63.572  1.00  0.00    -0.100 A  
HETATM   19  N   UNL     1      -8.352   4.703  64.841  1.00  0.00    -0.123 NA 
HETATM   20  C   UNL     1      -7.766   5.233  63.738  1.00  0.00    -0.081 A  
BRANCH  12  21
HETATM   21  C   UNL     1      -9.919   6.857  68.951  1.00  0.00    -0.157 A  
HETATM   22 CL   UNL     1     -10.827   7.319  73.301  1.00  0.00    -0.412 Cl 
HETATM   23  C   UNL     1     -11.537   6.864  70.733  1.00  0.00    -0.397 A  
HETATM   24  C   UNL     1      -9.240   7.331  71.115  1.00  0.00    -0.156 A  
HETATM   25  N   UNL     1      -8.932   7.215  69.800  1.00  0.00    -0.142 NA 
HETATM   26  C   UNL     1     -11.232   6.687  69.381  1.00  0.00    -0.356 A  
HETATM   27  C   UNL     1     -10.516   7.166  71.622  1.00  0.00    -0.198 A  
ENDBRANCH  12  21
ENDBRANCH  10  11
ENDBRANCH   7  10
TORSDOF 3
ENDMDL
MODEL      102
REMARK 921   NORMALIZED FREE ENERGY PREDICTED BY IDOCK:   -4.41 KCAL/MOL
REMARK 922        TOTAL FREE ENERGY PREDICTED BY IDOCK:   -6.00 KCAL/MOL
REMARK 923 INTER-LIGAND FREE ENERGY PREDICTED BY IDOCK:   -5.07 KCAL/MOL
REMARK 924 INTRA-LIGAND FREE ENERGY PREDICTED BY IDOCK:   -0.92 KCAL/MOL
REMARK 927      BINDING AFFINITY PREDICTED BY RF-SCORE:    0.00 PKD
ROOT
HETATM    1  C   UNL     1      -7.050  14.241  67.659  1.00  0.00    -0.183 C  
HETATM    2  N   UNL     1      -6.327  12.993  67.415  1.00  0.00    -0.249 NA 
HETATM    3  C   UNL     1      -5.563  12.563  68.608  1.00  0.00    -0.054 C  
HETATM    4  C   UNL     1      -6.428  11.994  69.748  1.00  0.00    -0.066 C  
HETATM    5  N   UNL     1      -7.312  10.942  69.260  1.00  0.00    -0.123 N  
HETATM    6  C   UNL     1      -8.126  11.316  68.101  1.00  0.00    -0.134 C  
HETATM    7  C   UNL     1      -7.118   9.639  69.674  1.00  0.00    -0.075 C  
HETATM    8  O   UNL     1      -6.210   9.292  70.417  1.00  0.00    -0.042 OA 
HETATM    9  C   UNL     1      -7.237  11.905  66.983  1.00  0.00    -0.118 C  
ENDROOT
BRANCH   7  10
HETATM   10  O   UNL     1      -8.063   8.798  69.191  1.00  0.00    -0.113 OA 
BRANCH  10  11
HETATM   11  C   UNL     1      -8.703   7.970  70.161  1.00  0.00    -0.135 C  
HETATM   12  N   UNL     1     -10.130   7.954  69.887  1.00  0.00    -0.193 N  
HETATM   13  C   UNL     1     -10.582   6.710  69.466  1.00  0.00    -0.241 C  
HETATM   14  C   UNL     1      -8.300   6.547  69.850  1.00  0.00    -0.131 A  
HETATM   15  N   UNL     1      -7.059   6.010  69.911  1.00  0.00    -0.069 NA 
HETATM   16  C   UNL     1      -9.404   5.833  69.430  1.00  0.00    -0.126 A  
HETATM   17  O   UNL     1     -11.721   6.351  69.231  1.00  0.00    -0.277 OA 
HETATM   18  C   UNL     1      -7.011   4.708  69.528  1.00  0.00    -0.050 A  
HETATM   19  N   UNL     1      -9.380   4.539  69.057  1.00  0.00    -0.135 NA 
HETATM   20  C   UNL     1      -8.140   3.994  69.116  1.00  0.00    -0.062 A  
BRANCH  12  21
HETATM   21  C   UNL     1     -10.950   9.009  70.301  1.00  0.00    -0.244 A  
HETATM   22 CL   UNL     1     -13.286  12.591  71.594  1.00  0.00    -0.459 Cl 
HETATM   23  C   UNL     1     -12.426  10.045  71.894  1.00  0.00    -0.408 A  
HETATM   24  C   UNL     1     -11.701  11.169  69.931  1.00  0.00    -0.355 A  
HETATM   25  N   UNL     1     -10.995  10.095  69.500  1.00  0.00    -0.242 NA 
HETATM   26  C   UNL     1     -11.663   8.946  71.495  1.00  0.00    -0.394 A  
HETATM   27  C   UNL     1     -12.424  11.190  71.110  1.00  0.00    -0.393 A  
ENDBRANCH  12  21
ENDBRANCH  10  11
ENDBRANCH   7  10
TORSDOF 3
ENDMDL
MODEL      103
REMARK 921   NORMALIZED FREE ENERGY PREDICTED BY IDOCK:   -4.39 KCAL/MOL
REMARK 922        TOTAL FREE ENERGY PREDICTED BY IDOCK:   -5.97 KCAL/MOL
REMARK 923 INTER-LIGAND FREE ENERGY PREDICTED BY IDOCK:   -4.97 KCAL/MOL
REMARK 924 INTRA-LIGAND FREE ENERGY PREDICTED BY IDOCK:   -1.00 KCAL/MOL
REMARK 927      BINDING AFFINITY PREDICTED BY RF-SCORE:    0.00 PKD
ROOT
HETATM    1  C   UNL     1     -11.245   5.918  72.608  1.00  0.00    -0.291 C  
HETATM    2  N   UNL     1     -12.069   6.894  71.897  1.00  0.00    -0.325 NA 
HETATM    3  C   UNL     1     -11.664   8.283  72.213  1.00  0.00    -0.388 C  
HETATM    4  C   UNL     1     -10.340   8.727  71.563  1.00  0.00    -0.303 C  
HETATM    5  N   UNL     1     -10.355   8.479  70.126  1.00  0.00    -0.202 N  
HETATM    6  C   UNL     1     -10.711   7.110  69.745  1.00  0.00    -0.239 C  
HETATM    7  C   UNL     1     -10.353   9.545  69.248  1.00  0.00    -0.208 C  
HETATM    8  O   UNL     1     -10.374  10.715  69.604  1.00  0.00    -0.216 OA 
HETATM    9  C   UNL     1     -12.029   6.684  70.430  1.00  0.00    -0.280 C  
ENDROOT
BRANCH   7  10
HETATM   10  O   UNL     1     -10.294   9.149  67.955  1.00  0.00    -0.207 OA 
BRANCH  10  11
HETATM   11  C   UNL     1      -9.032   9.333  67.313  1.00  0.00    -0.123 C  
HETATM   12  N   UNL     1      -8.640   8.077  66.695  1.00  0.00    -0.131 N  
HETATM   13  C   UNL     1      -8.633   8.141  65.308  1.00  0.00    -0.106 C  
HETATM   14  C   UNL     1      -9.281  10.218  66.114  1.00  0.00    -0.158 A  
HETATM   15  N   UNL     1      -9.699  11.505  66.112  1.00  0.00    -0.215 NA 
HETATM   16  C   UNL     1      -9.060   9.502  64.955  1.00  0.00    -0.223 A  
HETATM   17  O   UNL     1      -8.285   7.294  64.506  1.00  0.00    -0.107 OA 
HETATM   18  C   UNL     1      -9.872  12.018  64.867  1.00  0.00    -0.175 A  
HETATM   19  N   UNL     1      -9.215   9.995  63.711  1.00  0.00    -0.263 NA 
HETATM   20  C   UNL     1      -9.633  11.284  63.701  1.00  0.00    -0.274 A  
BRANCH  12  21
HETATM   21  C   UNL     1      -8.063   7.055  67.456  1.00  0.00    -0.113 A  
HETATM   22 CL   UNL     1      -6.547   3.679  69.957  1.00  0.00    -0.032 Cl 
HETATM   23  C   UNL     1      -6.657   6.286  69.251  1.00  0.00    -0.044 A  
HETATM   24  C   UNL     1      -7.968   4.794  67.949  1.00  0.00    -0.089 A  
HETATM   25  N   UNL     1      -8.435   5.792  67.159  1.00  0.00    -0.108 NA 
HETATM   26  C   UNL     1      -7.167   7.336  68.484  1.00  0.00    -0.094 A  
HETATM   27  C   UNL     1      -7.087   4.991  68.996  1.00  0.00    -0.053 A  
ENDBRANCH  12  21
ENDBRANCH  10  11
ENDBRANCH   7  10
TORSDOF 3
ENDMDL
MODEL      104
REMARK 921   NORMALIZED FREE ENERGY PREDICTED BY IDOCK:   -4.37 KCAL/MOL
REMARK 922        TOTAL FREE ENERGY PREDICTED BY IDOCK:   -5.95 KCAL/MOL
REMARK 923 INTER-LIGAND FREE ENERGY PREDICTED BY IDOCK:   -5.01 KCAL/MOL
REMARK 924 INTRA-LIGAND FREE ENERGY PREDICTED BY IDOCK:   -0.94 KCAL/MOL
REMARK 927      BINDING AFFINITY PREDICTED BY RF-SCORE:    0.00 PKD
ROOT
HETATM    1  C   UNL     1      -9.878   4.171  63.856  1.00  0.00    -0.105 C  
HETATM    2  N   UNL     1      -8.839   4.362  64.867  1.00  0.00    -0.137 NA 
HETATM    3  C   UNL     1      -8.023   5.567  64.590  1.00  0.00    -0.115 C  
HETATM    4  C   UNL     1      -8.737   6.901  64.879  1.00  0.00     0.283 C  
HETATM    5  N   UNL     1      -9.290   6.917  66.228  1.00  0.00    -0.140 N  
HETATM    6  C   UNL     1     -10.140   5.769  66.555  1.00  0.00    -0.171 C  
HETATM    7  C   UNL     1      -8.764   7.778  67.172  1.00  0.00    -0.125 C  
HETATM    8  O   UNL     1      -7.820   8.524  66.956  1.00  0.00    -0.095 OA 
HETATM    9  C   UNL     1      -9.408   4.446  66.233  1.00  0.00    -0.160 C  
ENDROOT
BRANCH   7  10
HETATM   10  O   UNL     1      -9.434   7.724  68.348  1.00  0.00    -0.146 OA 
BRANCH  10  11
HETATM   11  C   UNL     1      -9.071   8.716  69.307  1.00  0.00    -0.149 C  
HETATM   12  N   UNL     1     -10.112   9.730  69.339  1.00  0.00    -0.195 N  
HETATM   13  C   UNL     1     -10.811   9.743  70.539  1.00  0.00    -0.323 C  
HETATM   14  C   UNL     1      -9.207   8.073  70.668  1.00  0.00    -0.154 A  
HETATM   15  N   UNL     1      -8.491   7.038  71.166  1.00  0.00    -0.119 NA 
HETATM   16  C   UNL     1     -10.236   8.673  71.365  1.00  0.00    -0.254 A  
HETATM   17  O   UNL     1     -11.683  10.510  70.906  1.00  0.00    -0.338 OA 
HETATM   18  C   UNL     1      -8.878   6.658  72.411  1.00  0.00    -0.132 A  
HETATM   19  N   UNL     1     -10.630   8.318  72.603  1.00  0.00    -0.337 NA 
HETATM   20  C   UNL     1      -9.916   7.282  73.109  1.00  0.00    -0.249 A  
BRANCH  12  21
HETATM   21  C   UNL     1     -10.159  10.737  68.370  1.00  0.00    -0.169 A  
HETATM   22 CL   UNL     1     -10.334  14.189  65.540  1.00  0.00    -0.346 Cl 
HETATM   23  C   UNL     1     -11.152  11.775  66.440  1.00  0.00    -0.360 A  
HETATM   24  C   UNL     1      -9.348  12.773  67.618  1.00  0.00    -0.191 A  
HETATM   25  N   UNL     1      -9.256  11.734  68.485  1.00  0.00    -0.183 NA 
HETATM   26  C   UNL     1     -11.110  10.719  67.353  1.00  0.00    -0.363 A  
HETATM   27  C   UNL     1     -10.272  12.836  66.591  1.00  0.00    -0.238 A  
ENDBRANCH  12  21
ENDBRANCH  10  11
ENDBRANCH   7  10
TORSDOF 3
ENDMDL
MODEL      105
REMARK 921   NORMALIZED FREE ENERGY PREDICTED BY IDOCK:   -4.34 KCAL/MOL
REMARK 922        TOTAL FREE ENERGY PREDICTED BY IDOCK:   -5.91 KCAL/MOL
REMARK 923 INTER-LIGAND FREE ENERGY PREDICTED BY IDOCK:   -5.06 KCAL/MOL
REMARK 924 INTRA-LIGAND FREE ENERGY PREDICTED BY IDOCK:   -0.85 KCAL/MOL
REMARK 927      BINDING AFFINITY PREDICTED BY RF-SCORE:    0.00 PKD
ROOT
HETATM    1  C   UNL     1      -8.476   4.019  66.448  1.00  0.00    -0.109 C  
HETATM    2  N   UNL     1      -8.356   4.685  67.745  1.00  0.00    -0.103 NA 
HETATM    3  C   UNL     1      -7.079   5.425  67.862  1.00  0.00    -0.067 C  
HETATM    4  C   UNL     1      -7.016   6.725  67.039  1.00  0.00    -0.070 C  
HETATM    5  N   UNL     1      -8.166   7.577  67.319  1.00  0.00    -0.114 N  
HETATM    6  C   UNL     1      -9.465   6.915  67.183  1.00  0.00    -0.140 C  
HETATM    7  C   UNL     1      -7.981   8.783  67.966  1.00  0.00    -0.106 C  
HETATM    8  O   UNL     1      -6.894   9.180  68.361  1.00  0.00    -0.063 OA 
HETATM    9  C   UNL     1      -9.492   5.603  67.999  1.00  0.00    -0.110 C  
ENDROOT
BRANCH   7  10
HETATM   10  O   UNL     1      -9.132   9.487  68.084  1.00  0.00    -0.127 OA 
BRANCH  10  11
HETATM   11  C   UNL     1      -9.187  10.395  69.183  1.00  0.00    -0.191 C  
HETATM   12  N   UNL     1     -10.193  11.405  68.899  1.00  0.00    -0.197 N  
HETATM   13  C   UNL     1     -11.292  11.319  69.744  1.00  0.00    -0.271 C  
HETATM   14  C   UNL     1      -9.804   9.642  70.338  1.00  0.00    -0.256 A  
HETATM   15  N   UNL     1      -9.296   8.569  70.988  1.00  0.00    -0.170 NA 
HETATM   16  C   UNL     1     -11.037  10.183  70.640  1.00  0.00    -0.322 A  
HETATM   17  O   UNL     1     -12.261  12.053  69.814  1.00  0.00    -0.244 OA 
HETATM   18  C   UNL     1     -10.111   8.087  71.961  1.00  0.00    -0.218 A  
HETATM   19  N   UNL     1     -11.857   9.727  71.607  1.00  0.00    -0.390 NA 
HETATM   20  C   UNL     1     -11.354   8.652  72.263  1.00  0.00    -0.340 A  
BRANCH  12  21
HETATM   21  C   UNL     1      -9.904  12.489  68.064  1.00  0.00    -0.214 A  
HETATM   22 CL   UNL     1      -9.149  16.158  65.631  1.00  0.00    -0.120 Cl 
HETATM   23  C   UNL     1     -10.008  13.614  65.939  1.00  0.00    -0.304 A  
HETATM   24  C   UNL     1      -9.077  14.643  67.866  1.00  0.00    -0.189 A  
HETATM   25  N   UNL     1      -9.276  13.541  68.630  1.00  0.00    -0.089 NA 
HETATM   26  C   UNL     1     -10.270  12.486  66.721  1.00  0.00    -0.243 A  
HETATM   27  C   UNL     1      -9.423  14.725  66.530  1.00  0.00    -0.293 A  
ENDBRANCH  12  21
ENDBRANCH  10  11
ENDBRANCH   7  10
TORSDOF 3
ENDMDL
MODEL      106
REMARK 921   NORMALIZED FREE ENERGY PREDICTED BY IDOCK:   -4.34 KCAL/MOL
REMARK 922        TOTAL FREE ENERGY PREDICTED BY IDOCK:   -5.90 KCAL/MOL
REMARK 923 INTER-LIGAND FREE ENERGY PREDICTED BY IDOCK:   -4.84 KCAL/MOL
REMARK 924 INTRA-LIGAND FREE ENERGY PREDICTED BY IDOCK:   -1.06 KCAL/MOL
REMARK 927      BINDING AFFINITY PREDICTED BY RF-SCORE:    0.00 PKD
ROOT
HETATM    1  C   UNL     1     -10.615   8.094  67.626  1.00  0.00    -0.188 C  
HETATM    2  N   UNL     1     -10.318   8.975  68.755  1.00  0.00    -0.212 NA 
HETATM    3  C   UNL     1      -8.878   9.313  68.819  1.00  0.00    -0.132 C  
HETATM    4  C   UNL     1      -8.408  10.311  67.745  1.00  0.00    -0.110 C  
HETATM    5  N   UNL     1      -9.248  11.504  67.736  1.00  0.00    -0.161 N  
HETATM    6  C   UNL     1     -10.685  11.240  67.635  1.00  0.00    -0.226 C  
HETATM    7  C   UNL     1      -8.714  12.718  68.123  1.00  0.00    -0.193 C  
HETATM    8  O   UNL     1      -7.564  12.858  68.514  1.00  0.00    -0.126 OA 
HETATM    9  C   UNL     1     -11.123  10.219  68.709  1.00  0.00    -0.228 C  
ENDROOT
BRANCH   7  10
HETATM   10  O   UNL     1      -9.597  13.736  67.989  1.00  0.00    -0.201 OA 
BRANCH  10  11
HETATM   11  C   UNL     1      -9.548  14.730  69.011  1.00  0.00    -0.178 C  
HETATM   12  N   UNL     1      -9.685  16.038  68.391  1.00  0.00    -0.209 N  
HETATM   13  C   UNL     1     -10.877  16.668  68.726  1.00  0.00    -0.331 C  
HETATM   14  C   UNL     1     -10.834  14.610  69.795  1.00  0.00    -0.152 A  
HETATM   15  N   UNL     1     -11.245  13.564  70.549  1.00  0.00     0.453 NA 
HETATM   16  C   UNL     1     -11.603  15.740  69.603  1.00  0.00    -0.358 A  
HETATM   17  O   UNL     1     -11.257  17.787  68.435  1.00  0.00     0.077 OA 
HETATM   18  C   UNL     1     -12.474  13.739  71.099  1.00  0.00    -0.370 A  
HETATM   19  N   UNL     1     -12.820  15.939  70.147  1.00  0.00    -0.159 NA 
HETATM   20  C   UNL     1     -13.237  14.895  70.905  1.00  0.00    -0.368 A  
BRANCH  12  21
HETATM   21  C   UNL     1      -8.590  16.660  67.784  1.00  0.00    -0.192 A  
HETATM   22 CL   UNL     1      -5.167  18.937  66.037  1.00  0.00    -0.165 Cl 
HETATM   23  C   UNL     1      -7.394  17.418  65.839  1.00  0.00    -0.136 A  
HETATM   24  C   UNL     1      -6.647  17.894  68.042  1.00  0.00    -0.194 A  
HETATM   25  N   UNL     1      -7.664  17.198  68.606  1.00  0.00    -0.251 NA 
HETATM   26  C   UNL     1      -8.479  16.740  66.399  1.00  0.00    -0.338 A  
HETATM   27  C   UNL     1      -6.474  18.031  66.677  1.00  0.00    -0.195 A  
ENDBRANCH  12  21
ENDBRANCH  10  11
ENDBRANCH   7  10
TORSDOF 3
ENDMDL
MODEL      107
REMARK 921   NORMALIZED FREE ENERGY PREDICTED BY IDOCK:   -4.31 KCAL/MOL
REMARK 922        TOTAL FREE ENERGY PREDICTED BY IDOCK:   -5.87 KCAL/MOL
REMARK 923 INTER-LIGAND FREE ENERGY PREDICTED BY IDOCK:   -7.64 KCAL/MOL
REMARK 924 INTRA-LIGAND FREE ENERGY PREDICTED BY IDOCK:    1.77 KCAL/MOL
REMARK 927      BINDING AFFINITY PREDICTED BY RF-SCORE:    0.00 PKD
ROOT
HETATM    1  C   UNL     1      -9.990  11.130  63.066  1.00  0.00    -0.311 C  
HETATM    2  N   UNL     1     -10.765  11.027  64.302  1.00  0.00    -0.348 NA 
HETATM    3  C   UNL     1     -10.101  10.146  65.290  1.00  0.00    -0.274 C  
HETATM    4  C   UNL     1      -8.860  10.762  65.962  1.00  0.00    -0.180 C  
HETATM    5  N   UNL     1      -9.165  12.074  66.522  1.00  0.00    -0.214 N  
HETATM    6  C   UNL     1      -9.790  13.009  65.583  1.00  0.00    -0.170 C  
HETATM    7  C   UNL     1      -9.153  12.252  67.891  1.00  0.00    -0.190 C  
HETATM    8  O   UNL     1      -8.930  11.353  68.689  1.00  0.00    -0.172 OA 
HETATM    9  C   UNL     1     -11.017  12.357  64.906  1.00  0.00    -0.302 C  
ENDROOT
BRANCH   7  10
HETATM   10  O   UNL     1      -9.383  13.539  68.245  1.00  0.00    -0.204 OA 
BRANCH  10  11
HETATM   11  C   UNL     1     -10.712  14.009  68.024  1.00  0.00    -0.246 C  
HETATM   12  N   UNL     1     -11.355  14.203  69.313  1.00  0.00    -0.269 N  
HETATM   13  C   UNL     1     -11.614  15.540  69.587  1.00  0.00    -0.348 C  
HETATM   14  C   UNL     1     -10.592  15.424  67.508  1.00  0.00    -0.283 A  
HETATM   15  N   UNL     1     -10.035  15.832  66.344  1.00  0.00    -0.260 NA 
HETATM   16  C   UNL     1     -11.106  16.303  68.439  1.00  0.00    -0.362 A  
HETATM   17  O   UNL     1     -12.201  16.025  70.536  1.00  0.00    -0.335 OA 
HETATM   18  C   UNL     1     -10.040  17.180  66.182  1.00  0.00    -0.305 A  
HETATM   19  N   UNL     1     -11.130  17.642  68.294  1.00  0.00    -0.047 NA 
HETATM   20  C   UNL     1     -10.575  18.059  67.129  1.00  0.00    -0.325 A  
BRANCH  12  21
HETATM   21  C   UNL     1     -11.895  13.120  70.013  1.00  0.00    -0.290 A  
HETATM   22 CL   UNL     1     -13.799   9.578  71.959  1.00  0.00    -0.395 Cl 
HETATM   23  C   UNL     1     -13.125  12.194  71.863  1.00  0.00    -0.475 A  
HETATM   24  C   UNL     1     -12.368  10.853  70.055  1.00  0.00    -0.313 A  
HETATM   25  N   UNL     1     -11.764  11.902  69.445  1.00  0.00    -0.316 NA 
HETATM   26  C   UNL     1     -12.555  13.299  71.226  1.00  0.00    -0.398 A  
HETATM   27  C   UNL     1     -13.053  10.950  71.253  1.00  0.00    -0.308 A  
ENDBRANCH  12  21
ENDBRANCH  10  11
ENDBRANCH   7  10
TORSDOF 3
ENDMDL
MODEL      108
REMARK 921   NORMALIZED FREE ENERGY PREDICTED BY IDOCK:   -4.27 KCAL/MOL
REMARK 922        TOTAL FREE ENERGY PREDICTED BY IDOCK:   -5.82 KCAL/MOL
REMARK 923 INTER-LIGAND FREE ENERGY PREDICTED BY IDOCK:   -5.66 KCAL/MOL
REMARK 924 INTRA-LIGAND FREE ENERGY PREDICTED BY IDOCK:   -0.17 KCAL/MOL
REMARK 927      BINDING AFFINITY PREDICTED BY RF-SCORE:    0.00 PKD
ROOT
HETATM    1  C   UNL     1      -5.650  13.639  70.936  1.00  0.00    -0.200 C  
HETATM    2  N   UNL     1      -5.188  13.035  69.686  1.00  0.00    -0.080 NA 
HETATM    3  C   UNL     1      -5.161  11.557  69.771  1.00  0.00    -0.058 C  
HETATM    4  C   UNL     1      -6.548  10.890  69.736  1.00  0.00    -0.140 C  
HETATM    5  N   UNL     1      -7.324  11.354  68.591  1.00  0.00    -0.097 N  
HETATM    6  C   UNL     1      -7.423  12.811  68.471  1.00  0.00    -0.120 C  
HETATM    7  C   UNL     1      -7.629  10.475  67.571  1.00  0.00    -0.093 C  
HETATM    8  O   UNL     1      -7.255   9.311  67.545  1.00  0.00    -0.079 OA 
HETATM    9  C   UNL     1      -6.019  13.455  68.532  1.00  0.00    -0.088 C  
ENDROOT
BRANCH   7  10
HETATM   10  O   UNL     1      -8.414  11.040  66.622  1.00  0.00    -0.142 OA 
BRANCH  10  11
HETATM   11  C   UNL     1      -9.675  10.407  66.412  1.00  0.00    -0.201 C  
HETATM   12  N   UNL     1     -10.466  10.536  67.624  1.00  0.00    -0.217 N  
HETATM   13  C   UNL     1     -11.572  11.359  67.458  1.00  0.00    -0.219 C  
HETATM   14  C   UNL     1     -10.437  11.273  65.437  1.00  0.00    -0.268 A  
HETATM   15  N   UNL     1     -10.124  11.535  64.146  1.00  0.00    -0.282 NA 
HETATM   16  C   UNL     1     -11.529  11.833  66.068  1.00  0.00    -0.215 A  
HETATM   17  O   UNL     1     -12.463  11.610  68.249  1.00  0.00    -0.251 OA 
HETATM   18  C   UNL     1     -10.987  12.390  63.539  1.00  0.00    -0.450 A  
HETATM   19  N   UNL     1     -12.404  12.674  65.482  1.00  0.00    -0.632 NA 
HETATM   20  C   UNL     1     -12.096  12.940  64.189  1.00  0.00    -0.432 A  
BRANCH  12  21
HETATM   21  C   UNL     1     -10.258   9.678  68.709  1.00  0.00    -0.196 A  
HETATM   22 CL   UNL     1      -9.300   7.123  72.246  1.00  0.00    -0.153 Cl 
HETATM   23  C   UNL     1      -9.934   7.484  69.643  1.00  0.00    -0.184 A  
HETATM   24  C   UNL     1      -9.791   9.451  70.966  1.00  0.00    -0.247 A  
HETATM   25  N   UNL     1     -10.096  10.255  69.919  1.00  0.00    -0.216 NA 
HETATM   26  C   UNL     1     -10.197   8.298  68.538  1.00  0.00    -0.234 A  
HETATM   27  C   UNL     1      -9.700   8.074  70.877  1.00  0.00    -0.164 A  
ENDBRANCH  12  21
ENDBRANCH  10  11
ENDBRANCH   7  10
TORSDOF 3
ENDMDL
MODEL      109
REMARK 921   NORMALIZED FREE ENERGY PREDICTED BY IDOCK:   -4.07 KCAL/MOL
REMARK 922        TOTAL FREE ENERGY PREDICTED BY IDOCK:   -5.60 KCAL/MOL
REMARK 923 INTER-LIGAND FREE ENERGY PREDICTED BY IDOCK:   -4.85 KCAL/MOL
REMARK 924 INTRA-LIGAND FREE ENERGY PREDICTED BY IDOCK:   -0.75 KCAL/MOL
REMARK 927      BINDING AFFINITY PREDICTED BY RF-SCORE:    0.00 PKD
ROOT
HETATM    1  C   UNL     1      -6.066   8.374  70.381  1.00  0.00    -0.031 C  
HETATM    2  N   UNL     1      -6.275   8.865  69.019  1.00  0.00    -0.043 NA 
HETATM    3  C   UNL     1      -7.629   8.534  68.521  1.00  0.00    -0.095 C  
HETATM    4  C   UNL     1      -8.761   9.375  69.141  1.00  0.00    -0.142 C  
HETATM    5  N   UNL     1      -8.474  10.801  69.029  1.00  0.00    -0.152 N  
HETATM    6  C   UNL     1      -7.162  11.202  69.541  1.00  0.00    -0.057 C  
HETATM    7  C   UNL     1      -9.257  11.593  68.213  1.00  0.00    -0.187 C  
HETATM    8  O   UNL     1     -10.178  11.163  67.533  1.00  0.00    -0.179 OA 
HETATM    9  C   UNL     1      -6.049  10.327  68.920  1.00  0.00    -0.040 C  
ENDROOT
BRANCH   7  10
HETATM   10  O   UNL     1      -8.909  12.900  68.276  1.00  0.00    -0.186 OA 
BRANCH  10  11
HETATM   11  C   UNL     1      -8.265  13.422  67.114  1.00  0.00    -0.110 C  
HETATM   12  N   UNL     1      -9.219  14.241  66.385  1.00  0.00    -0.240 N  
HETATM   13  C   UNL     1      -8.884  15.589  66.392  1.00  0.00    -0.324 C  
HETATM   14  C   UNL     1      -7.264  14.446  67.595  1.00  0.00    -0.184 A  
HETATM   15  N   UNL     1      -6.166  14.230  68.357  1.00  0.00    -0.094 NA 
HETATM   16  C   UNL     1      -7.650  15.704  67.181  1.00  0.00    -0.223 A  
HETATM   17  O   UNL     1      -9.430  16.514  65.819  1.00  0.00    -0.484 OA 
HETATM   18  C   UNL     1      -5.484  15.364  68.662  1.00  0.00    -0.094 A  
HETATM   19  N   UNL     1      -6.984  16.840  67.462  1.00  0.00    -0.133 NA 
HETATM   20  C   UNL     1      -5.882  16.632  68.224  1.00  0.00    -0.118 A  
BRANCH  12  21
HETATM   21  C   UNL     1     -10.173  13.654  65.548  1.00  0.00    -0.302 A  
HETATM   22 CL   UNL     1     -13.380  11.655  63.166  1.00  0.00     0.344 Cl 
HETATM   23  C   UNL     1     -10.794  12.185  63.746  1.00  0.00    -0.490 A  
HETATM   24  C   UNL     1     -12.413  13.311  65.068  1.00  0.00    -0.443 A  
HETATM   25  N   UNL     1     -11.467  13.948  65.800  1.00  0.00    -0.315 NA 
HETATM   26  C   UNL     1      -9.802  12.789  64.522  1.00  0.00    -0.052 A  
HETATM   27  C   UNL     1     -12.127  12.430  64.041  1.00  0.00    -0.475 A  
ENDBRANCH  12  21
ENDBRANCH  10  11
ENDBRANCH   7  10
TORSDOF 3
ENDMDL
MODEL      110
REMARK 921   NORMALIZED FREE ENERGY PREDICTED BY IDOCK:   -4.07 KCAL/MOL
REMARK 922        TOTAL FREE ENERGY PREDICTED BY IDOCK:   -5.59 KCAL/MOL
REMARK 923 INTER-LIGAND FREE ENERGY PREDICTED BY IDOCK:   -4.78 KCAL/MOL
REMARK 924 INTRA-LIGAND FREE ENERGY PREDICTED BY IDOCK:   -0.81 KCAL/MOL
REMARK 927      BINDING AFFINITY PREDICTED BY RF-SCORE:    0.00 PKD
ROOT
HETATM    1  C   UNL     1      -9.630   4.030  63.676  1.00  0.00    -0.156 C  
HETATM    2  N   UNL     1      -8.657   3.671  64.707  1.00  0.00    -0.104 NA 
HETATM    3  C   UNL     1      -7.684   4.761  64.943  1.00  0.00    -0.078 C  
HETATM    4  C   UNL     1      -8.252   5.969  65.713  1.00  0.00    -0.136 C  
HETATM    5  N   UNL     1      -8.903   5.543  66.947  1.00  0.00    -0.112 N  
HETATM    6  C   UNL     1      -9.907   4.490  66.777  1.00  0.00    -0.221 C  
HETATM    7  C   UNL     1      -8.353   5.892  68.165  1.00  0.00    -0.115 C  
HETATM    8  O   UNL     1      -7.312   6.523  68.282  1.00  0.00    -0.082 OA 
HETATM    9  C   UNL     1      -9.317   3.303  65.983  1.00  0.00    -0.117 C  
ENDROOT
BRANCH   7  10
HETATM   10  O   UNL     1      -9.113   5.486  69.209  1.00  0.00    -0.110 OA 
BRANCH  10  11
HETATM   11  C   UNL     1      -9.171   6.386  70.314  1.00  0.00    -0.155 C  
HETATM   12  N   UNL     1     -10.273   7.310  70.102  1.00  0.00    -0.200 N  
HETATM   13  C   UNL     1     -11.304   7.133  71.016  1.00  0.00    -0.279 C  
HETATM   14  C   UNL     1      -9.648   5.584  71.503  1.00  0.00    -0.150 A  
HETATM   15  N   UNL     1      -9.013   4.556  72.111  1.00  0.00    -0.124 NA 
HETATM   16  C   UNL     1     -10.899   6.021  71.887  1.00  0.00    -0.254 A  
HETATM   17  O   UNL     1     -12.323   7.785  71.153  1.00  0.00    -0.304 OA 
HETATM   18  C   UNL     1      -9.720   4.007  73.132  1.00  0.00    -0.126 A  
HETATM   19  N   UNL     1     -11.614   5.499  72.902  1.00  0.00    -0.274 NA 
HETATM   20  C   UNL     1     -10.983   4.469  73.517  1.00  0.00    -0.306 A  
BRANCH  12  21
HETATM   21  C   UNL     1     -10.128   8.414  69.257  1.00  0.00    -0.202 A  
HETATM   22 CL   UNL     1      -9.799  12.143  66.819  1.00  0.00    -0.211 Cl 
HETATM   23  C   UNL     1     -10.572   9.581  67.200  1.00  0.00    -0.295 A  
HETATM   24  C   UNL     1      -9.365  10.584  68.982  1.00  0.00    -0.196 A  
HETATM   25  N   UNL     1      -9.431   9.464  69.743  1.00  0.00    -0.188 NA 
HETATM   26  C   UNL     1     -10.698   8.434  67.987  1.00  0.00    -0.118 A  
HETATM   27  C   UNL     1      -9.915  10.688  67.718  1.00  0.00    -0.167 A  
ENDBRANCH  12  21
ENDBRANCH  10  11
ENDBRANCH   7  10
TORSDOF 3
ENDMDL
MODEL      111
REMARK 921   NORMALIZED FREE ENERGY PREDICTED BY IDOCK:   -4.07 KCAL/MOL
REMARK 922        TOTAL FREE ENERGY PREDICTED BY IDOCK:   -5.59 KCAL/MOL
REMARK 923 INTER-LIGAND FREE ENERGY PREDICTED BY IDOCK:   -5.72 KCAL/MOL
REMARK 924 INTRA-LIGAND FREE ENERGY PREDICTED BY IDOCK:    0.13 KCAL/MOL
REMARK 927      BINDING AFFINITY PREDICTED BY RF-SCORE:    0.00 PKD
ROOT
HETATM    1  C   UNL     1     -14.171  15.543  71.815  1.00  0.00    -0.454 C  
HETATM    2  N   UNL     1     -13.117  14.737  72.429  1.00  0.00    -0.348 NA 
HETATM    3  C   UNL     1     -13.568  13.350  72.684  1.00  0.00    -0.431 C  
HETATM    4  C   UNL     1     -13.686  12.475  71.423  1.00  0.00     0.668 C  
HETATM    5  N   UNL     1     -12.453  12.511  70.644  1.00  0.00    -0.288 N  
HETATM    6  C   UNL     1     -11.972  13.857  70.323  1.00  0.00    -0.331 C  
HETATM    7  C   UNL     1     -11.681  11.371  70.533  1.00  0.00    -0.198 C  
HETATM    8  O   UNL     1     -11.951  10.315  71.086  1.00  0.00    -0.342 OA 
HETATM    9  C   UNL     1     -11.886  14.719  71.603  1.00  0.00    -0.315 C  
ENDROOT
BRANCH   7  10
HETATM   10  O   UNL     1     -10.614  11.549  69.719  1.00  0.00     0.057 OA 
BRANCH  10  11
HETATM   11  C   UNL     1     -10.199  10.396  68.989  1.00  0.00    -0.217 C  
HETATM   12  N   UNL     1      -9.414  10.830  67.845  1.00  0.00    -0.155 N  
HETATM   13  C   UNL     1      -8.078  10.461  67.940  1.00  0.00    -0.102 C  
HETATM   14  C   UNL     1      -9.166   9.694  69.839  1.00  0.00    -0.229 A  
HETATM   15  N   UNL     1      -9.349   9.114  71.048  1.00  0.00    -0.266 NA 
HETATM   16  C   UNL     1      -7.933   9.757  69.221  1.00  0.00    -0.112 A  
HETATM   17  O   UNL     1      -7.187  10.607  67.124  1.00  0.00    -0.091 OA 
HETATM   18  C   UNL     1      -8.212   8.599  71.583  1.00  0.00    -0.144 A  
HETATM   19  N   UNL     1      -6.795   9.244  69.728  1.00  0.00    -0.050 NA 
HETATM   20  C   UNL     1      -6.972   8.661  70.939  1.00  0.00    -0.064 A  
BRANCH  12  21
HETATM   21  C   UNL     1     -10.040  11.294  66.683  1.00  0.00    -0.214 A  
HETATM   22 CL   UNL     1     -12.347  12.755  63.148  1.00  0.00    -0.445 Cl 
HETATM   23  C   UNL     1     -10.561  11.113  64.341  1.00  0.00    -0.411 A  
HETATM   24  C   UNL     1     -11.525  12.788  65.721  1.00  0.00    -0.348 A  
HETATM   25  N   UNL     1     -10.829  12.382  66.811  1.00  0.00    -0.241 NA 
HETATM   26  C   UNL     1      -9.873  10.645  65.463  1.00  0.00    -0.316 A  
HETATM   27  C   UNL     1     -11.425  12.190  64.478  1.00  0.00    -0.334 A  
ENDBRANCH  12  21
ENDBRANCH  10  11
ENDBRANCH   7  10
TORSDOF 3
ENDMDL
MODEL      112
REMARK 921   NORMALIZED FREE ENERGY PREDICTED BY IDOCK:   -4.06 KCAL/MOL
REMARK 922        TOTAL FREE ENERGY PREDICTED BY IDOCK:   -5.58 KCAL/MOL
REMARK 923 INTER-LIGAND FREE ENERGY PREDICTED BY IDOCK:   -4.91 KCAL/MOL
REMARK 924 INTRA-LIGAND FREE ENERGY PREDICTED BY IDOCK:   -0.68 KCAL/MOL
REMARK 927      BINDING AFFINITY PREDICTED BY RF-SCORE:    0.00 PKD
ROOT
HETATM    1  C   UNL     1      -7.022  15.535  67.601  1.00  0.00    -0.179 C  
HETATM    2  N   UNL     1      -6.096  14.404  67.596  1.00  0.00    -0.323 NA 
HETATM    3  C   UNL     1      -5.534  14.151  68.943  1.00  0.00    -0.083 C  
HETATM    4  C   UNL     1      -6.521  13.510  69.936  1.00  0.00    -0.013 C  
HETATM    5  N   UNL     1      -7.131  12.313  69.368  1.00  0.00     0.053 N  
HETATM    6  C   UNL     1      -7.740  12.504  68.050  1.00  0.00    -0.140 C  
HETATM    7  C   UNL     1      -6.842  11.076  69.910  1.00  0.00    -0.095 C  
HETATM    8  O   UNL     1      -6.063  10.908  70.838  1.00  0.00    -0.340 OA 
HETATM    9  C   UNL     1      -6.736  13.169  67.082  1.00  0.00     0.232 C  
ENDROOT
BRANCH   7  10
HETATM   10  O   UNL     1      -7.542  10.078  69.320  1.00  0.00    -0.087 OA 
BRANCH  10  11
HETATM   11  C   UNL     1      -8.877   9.901  69.793  1.00  0.00    -0.211 C  
HETATM   12  N   UNL     1      -9.679   9.342  68.717  1.00  0.00    -0.154 N  
HETATM   13  C   UNL     1     -10.096   8.043  68.979  1.00  0.00    -0.201 C  
HETATM   14  C   UNL     1      -8.837   8.765  70.788  1.00  0.00    -0.191 A  
HETATM   15  N   UNL     1      -8.194   8.734  71.978  1.00  0.00    -0.366 NA 
HETATM   16  C   UNL     1      -9.537   7.685  70.289  1.00  0.00    -0.172 A  
HETATM   17  O   UNL     1     -10.832   7.331  68.321  1.00  0.00    -0.157 OA 
HETATM   18  C   UNL     1      -8.312   7.548  72.630  1.00  0.00    -0.117 A  
HETATM   19  N   UNL     1      -9.676   6.505  70.923  1.00  0.00    -0.176 NA 
HETATM   20  C   UNL     1      -9.035   6.467  72.117  1.00  0.00    -0.136 A  
BRANCH  12  21
HETATM   21  C   UNL     1     -10.186  10.161  67.703  1.00  0.00    -0.203 A  
HETATM   22 CL   UNL     1     -12.132  12.693  64.580  1.00  0.00    -0.454 Cl 
HETATM   23  C   UNL     1     -10.410  10.772  65.387  1.00  0.00    -0.315 A  
HETATM   24  C   UNL     1     -11.629  11.870  67.103  1.00  0.00    -0.290 A  
HETATM   25  N   UNL     1     -11.046  11.131  68.079  1.00  0.00    -0.252 NA 
HETATM   26  C   UNL     1      -9.836   9.963  66.370  1.00  0.00    -0.288 A  
HETATM   27  C   UNL     1     -11.345  11.727  65.757  1.00  0.00    -0.250 A  
ENDBRANCH  12  21
ENDBRANCH  10  11
ENDBRANCH   7  10
TORSDOF 3
ENDMDL
MODEL      113
REMARK 921   NORMALIZED FREE ENERGY PREDICTED BY IDOCK:   -4.04 KCAL/MOL
REMARK 922        TOTAL FREE ENERGY PREDICTED BY IDOCK:   -5.56 KCAL/MOL
REMARK 923 INTER-LIGAND FREE ENERGY PREDICTED BY IDOCK:   -4.95 KCAL/MOL
REMARK 924 INTRA-LIGAND FREE ENERGY PREDICTED BY IDOCK:   -0.61 KCAL/MOL
REMARK 927      BINDING AFFINITY PREDICTED BY RF-SCORE:    0.00 PKD
ROOT
HETATM    1  C   UNL     1     -11.633  14.035  69.963  1.00  0.00    -0.232 C  
HETATM    2  N   UNL     1     -12.202  13.369  68.792  1.00  0.00    -0.224 NA 
HETATM    3  C   UNL     1     -11.618  13.887  67.533  1.00  0.00    -0.360 C  
HETATM    4  C   UNL     1     -10.175  13.424  67.261  1.00  0.00    -0.241 C  
HETATM    5  N   UNL     1     -10.064  11.972  67.356  1.00  0.00    -0.193 N  
HETATM    6  C   UNL     1     -10.590  11.399  68.597  1.00  0.00    -0.199 C  
HETATM    7  C   UNL     1      -9.790  11.233  66.222  1.00  0.00    -0.214 C  
HETATM    8  O   UNL     1      -9.664  11.722  65.108  1.00  0.00    -0.243 OA 
HETATM    9  C   UNL     1     -12.029  11.898  68.857  1.00  0.00    -0.254 C  
ENDROOT
BRANCH   7  10
HETATM   10  O   UNL     1      -9.647   9.913  66.490  1.00  0.00    -0.171 OA 
BRANCH  10  11
HETATM   11  C   UNL     1      -8.401   9.537  67.075  1.00  0.00    -0.124 C  
HETATM   12  N   UNL     1      -8.568   8.250  67.731  1.00  0.00    -0.130 N  
HETATM   13  C   UNL     1      -7.853   7.235  67.110  1.00  0.00    -0.110 C  
HETATM   14  C   UNL     1      -7.471   9.197  65.934  1.00  0.00    -0.094 A  
HETATM   15  N   UNL     1      -7.003  10.031  64.976  1.00  0.00    -0.131 NA 
HETATM   16  C   UNL     1      -7.176   7.849  65.959  1.00  0.00    -0.073 A  
HETATM   17  O   UNL     1      -7.724   6.073  67.451  1.00  0.00    -0.095 OA 
HETATM   18  C   UNL     1      -6.215   9.416  64.057  1.00  0.00    -0.092 A  
HETATM   19  N   UNL     1      -6.389   7.221  65.065  1.00  0.00    -0.037 NA 
HETATM   20  C   UNL     1      -5.915   8.051  64.103  1.00  0.00    -0.057 A  
BRANCH  12  21
HETATM   21  C   UNL     1      -9.148   8.165  69.001  1.00  0.00    -0.148 A  
HETATM   22 CL   UNL     1     -11.274   8.078  72.929  1.00  0.00    -0.449 Cl 
HETATM   23  C   UNL     1      -9.109   8.540  71.378  1.00  0.00    -0.266 A  
HETATM   24  C   UNL     1     -11.022   7.672  70.270  1.00  0.00    -0.252 A  
HETATM   25  N   UNL     1     -10.402   7.669  69.064  1.00  0.00    -0.211 NA 
HETATM   26  C   UNL     1      -8.469   8.595  70.137  1.00  0.00    -0.135 A  
HETATM   27  C   UNL     1     -10.421   8.095  71.442  1.00  0.00    -0.212 A  
ENDBRANCH  12  21
ENDBRANCH  10  11
ENDBRANCH   7  10
TORSDOF 3
ENDMDL
MODEL      114
REMARK 921   NORMALIZED FREE ENERGY PREDICTED BY IDOCK:   -4.03 KCAL/MOL
REMARK 922        TOTAL FREE ENERGY PREDICTED BY IDOCK:   -5.54 KCAL/MOL
REMARK 923 INTER-LIGAND FREE ENERGY PREDICTED BY IDOCK:   -4.89 KCAL/MOL
REMARK 924 INTRA-LIGAND FREE ENERGY PREDICTED BY IDOCK:   -0.65 KCAL/MOL
REMARK 927      BINDING AFFINITY PREDICTED BY RF-SCORE:    0.00 PKD
ROOT
HETATM    1  C   UNL     1     -10.668  12.842  63.725  1.00  0.00    -0.361 C  
HETATM    2  N   UNL     1     -11.084  11.502  64.138  1.00  0.00    -0.359 NA 
HETATM    3  C   UNL     1     -10.014  10.504  63.912  1.00  0.00    -0.282 C  
HETATM    4  C   UNL     1      -8.839  10.591  64.904  1.00  0.00    -0.192 C  
HETATM    5  N   UNL     1      -9.317  10.573  66.282  1.00  0.00    -0.166 N  
HETATM    6  C   UNL     1     -10.352  11.564  66.584  1.00  0.00    -0.226 C  
HETATM    7  C   UNL     1      -9.029   9.491  67.091  1.00  0.00    -0.134 C  
HETATM    8  O   UNL     1      -8.413   8.505  66.709  1.00  0.00    -0.107 OA 
HETATM    9  C   UNL     1     -11.505  11.470  65.560  1.00  0.00    -0.004 C  
ENDROOT
BRANCH   7  10
HETATM   10  O   UNL     1      -9.478   9.660  68.357  1.00  0.00    -0.136 OA 
BRANCH  10  11
HETATM   11  C   UNL     1     -10.629   8.894  68.709  1.00  0.00    -0.157 C  
HETATM   12  N   UNL     1     -10.233   7.877  69.669  1.00  0.00    -0.202 N  
HETATM   13  C   UNL     1     -10.779   8.087  70.928  1.00  0.00    -0.221 C  
HETATM   14  C   UNL     1     -11.512   9.795  69.541  1.00  0.00    -0.009 A  
HETATM   15  N   UNL     1     -12.135  10.931  69.148  1.00  0.00    -0.415 NA 
HETATM   16  C   UNL     1     -11.573   9.320  70.835  1.00  0.00    -0.301 A  
HETATM   17  O   UNL     1     -10.702   7.386  71.920  1.00  0.00    -0.212 OA 
HETATM   18  C   UNL     1     -12.826  11.544  70.142  1.00  0.00     0.173 A  
HETATM   19  N   UNL     1     -12.261   9.906  71.834  1.00  0.00    -0.331 NA 
HETATM   20  C   UNL     1     -12.888  11.044  71.447  1.00  0.00    -0.443 A  
BRANCH  12  21
HETATM   21  C   UNL     1      -9.621   6.693  69.245  1.00  0.00    -0.143 A  
HETATM   22 CL   UNL     1      -7.970   2.745  67.963  1.00  0.00    -0.059 Cl 
HETATM   23  C   UNL     1      -7.879   5.040  69.389  1.00  0.00    -0.075 A  
HETATM   24  C   UNL     1      -9.737   4.788  67.933  1.00  0.00    -0.149 A  
HETATM   25  N   UNL     1     -10.259   5.989  68.286  1.00  0.00    -0.164 NA 
HETATM   26  C   UNL     1      -8.425   6.256  69.807  1.00  0.00    -0.126 A  
HETATM   27  C   UNL     1      -8.562   4.278  68.453  1.00  0.00    -0.094 A  
ENDBRANCH  12  21
ENDBRANCH  10  11
ENDBRANCH   7  10
TORSDOF 3
ENDMDL
MODEL      115
REMARK 921   NORMALIZED FREE ENERGY PREDICTED BY IDOCK:   -4.01 KCAL/MOL
REMARK 922        TOTAL FREE ENERGY PREDICTED BY IDOCK:   -5.52 KCAL/MOL
REMARK 923 INTER-LIGAND FREE ENERGY PREDICTED BY IDOCK:   -6.01 KCAL/MOL
REMARK 924 INTRA-LIGAND FREE ENERGY PREDICTED BY IDOCK:    0.49 KCAL/MOL
REMARK 927      BINDING AFFINITY PREDICTED BY RF-SCORE:    0.00 PKD
ROOT
HETATM    1  C   UNL     1     -10.662   8.102  70.271  1.00  0.00    -0.235 C  
HETATM    2  N   UNL     1      -9.499   8.097  69.385  1.00  0.00    -0.162 NA 
HETATM    3  C   UNL     1      -9.864   7.690  68.008  1.00  0.00    -0.161 C  
HETATM    4  C   UNL     1     -10.635   8.758  67.211  1.00  0.00    -0.233 C  
HETATM    5  N   UNL     1      -9.931  10.036  67.232  1.00  0.00    -0.188 N  
HETATM    6  C   UNL     1      -9.574  10.515  68.569  1.00  0.00    -0.163 C  
HETATM    7  C   UNL     1      -9.388  10.536  66.065  1.00  0.00    -0.178 C  
HETATM    8  O   UNL     1      -9.428   9.949  64.993  1.00  0.00    -0.243 OA 
HETATM    9  C   UNL     1      -8.823   9.416  69.355  1.00  0.00    -0.159 C  
ENDROOT
BRANCH   7  10
HETATM   10  O   UNL     1      -8.835  11.761  66.237  1.00  0.00    -0.195 OA 
BRANCH  10  11
HETATM   11  C   UNL     1      -9.697  12.750  66.796  1.00  0.00    -0.243 C  
HETATM   12  N   UNL     1      -9.014  14.033  66.761  1.00  0.00    -0.228 N  
HETATM   13  C   UNL     1      -9.606  14.932  65.883  1.00  0.00    -0.308 C  
HETATM   14  C   UNL     1     -10.820  12.957  65.806  1.00  0.00    -0.269 A  
HETATM   15  N   UNL     1     -11.759  12.060  65.426  1.00  0.00    -0.320 NA 
HETATM   16  C   UNL     1     -10.740  14.227  65.271  1.00  0.00    -0.366 A  
HETATM   17  O   UNL     1      -9.324  16.098  65.679  1.00  0.00    -0.420 OA 
HETATM   18  C   UNL     1     -12.613  12.533  64.481  1.00  0.00    -0.421 A  
HETATM   19  N   UNL     1     -11.582  14.720  64.342  1.00  0.00    -0.337 NA 
HETATM   20  C   UNL     1     -12.527  13.826  63.957  1.00  0.00    -0.224 A  
BRANCH  12  21
HETATM   21  C   UNL     1      -8.064  14.364  67.732  1.00  0.00    -0.168 A  
HETATM   22 CL   UNL     1      -5.169  15.751  70.838  1.00  0.00    -0.165 Cl 
HETATM   23  C   UNL     1      -5.789  14.568  68.488  1.00  0.00    -0.095 A  
HETATM   24  C   UNL     1      -7.623  15.323  69.794  1.00  0.00    -0.101 A  
HETATM   25  N   UNL     1      -8.531  14.900  68.880  1.00  0.00    -0.171 NA 
HETATM   26  C   UNL     1      -6.703  14.172  67.509  1.00  0.00    -0.127 A  
HETATM   27  C   UNL     1      -6.256  15.180  69.642  1.00  0.00    -0.135 A  
ENDBRANCH  12  21
ENDBRANCH  10  11
ENDBRANCH   7  10
TORSDOF 3
ENDMDL
MODEL      116
REMARK 921   NORMALIZED FREE ENERGY PREDICTED BY IDOCK:   -3.99 KCAL/MOL
REMARK 922        TOTAL FREE ENERGY PREDICTED BY IDOCK:   -5.50 KCAL/MOL
REMARK 923 INTER-LIGAND FREE ENERGY PREDICTED BY IDOCK:   -4.58 KCAL/MOL
REMARK 924 INTRA-LIGAND FREE ENERGY PREDICTED BY IDOCK:   -0.92 KCAL/MOL
REMARK 927      BINDING AFFINITY PREDICTED BY RF-SCORE:    0.00 PKD
ROOT
HETATM    1  C   UNL     1     -10.902   7.128  72.987  1.00  0.00    -0.328 C  
HETATM    2  N   UNL     1     -11.335   7.342  71.607  1.00  0.00    -0.249 NA 
HETATM    3  C   UNL     1     -12.094   8.605  71.463  1.00  0.00    -0.316 C  
HETATM    4  C   UNL     1     -11.231   9.879  71.530  1.00  0.00    -0.099 C  
HETATM    5  N   UNL     1     -10.115   9.805  70.594  1.00  0.00    -0.246 N  
HETATM    6  C   UNL     1      -9.299   8.594  70.711  1.00  0.00    -0.191 C  
HETATM    7  C   UNL     1     -10.076  10.657  69.508  1.00  0.00    -0.132 C  
HETATM    8  O   UNL     1     -10.954  11.469  69.252  1.00  0.00    -0.231 OA 
HETATM    9  C   UNL     1     -10.192   7.333  70.664  1.00  0.00    -0.195 C  
ENDROOT
BRANCH   7  10
HETATM   10  O   UNL     1      -8.943  10.513  68.780  1.00  0.00    -0.149 OA 
BRANCH  10  11
HETATM   11  C   UNL     1      -8.713  11.519  67.795  1.00  0.00    -0.142 C  
HETATM   12  N   UNL     1      -7.298  11.852  67.796  1.00  0.00    -0.100 N  
HETATM   13  C   UNL     1      -6.656  11.466  66.626  1.00  0.00    -0.114 C  
HETATM   14  C   UNL     1      -8.887  10.857  66.449  1.00  0.00    -0.171 A  
HETATM   15  N   UNL     1     -10.018  10.323  65.933  1.00  0.00    -0.243 NA 
HETATM   16  C   UNL     1      -7.675  10.819  65.789  1.00  0.00    -0.094 A  
HETATM   17  O   UNL     1      -5.503  11.663  66.287  1.00  0.00    -0.279 OA 
HETATM   18  C   UNL     1      -9.845   9.758  64.710  1.00  0.00    -0.053 A  
HETATM   19  N   UNL     1      -7.483  10.274  64.572  1.00  0.00    -0.124 NA 
HETATM   20  C   UNL     1      -8.613   9.738  64.049  1.00  0.00    -0.197 A  
BRANCH  12  21
HETATM   21  C   UNL     1      -6.768  12.721  68.755  1.00  0.00    -0.093 A  
HETATM   22 CL   UNL     1      -5.151  15.251  72.062  1.00  0.00    -0.131 Cl 
HETATM   23  C   UNL     1      -6.718  14.838  69.898  1.00  0.00    -0.172 A  
HETATM   24  C   UNL     1      -5.342  13.017  70.556  1.00  0.00    -0.145 A  
HETATM   25  N   UNL     1      -5.798  12.227  69.553  1.00  0.00    -0.090 NA 
HETATM   26  C   UNL     1      -7.240  14.024  68.891  1.00  0.00    -0.108 A  
HETATM   27  C   UNL     1      -5.768  14.316  70.765  1.00  0.00    -0.187 A  
ENDBRANCH  12  21
ENDBRANCH  10  11
ENDBRANCH   7  10
TORSDOF 3
ENDMDL
MODEL      117
REMARK 921   NORMALIZED FREE ENERGY PREDICTED BY IDOCK:   -3.95 KCAL/MOL
REMARK 922        TOTAL FREE ENERGY PREDICTED BY IDOCK:   -5.46 KCAL/MOL
REMARK 923 INTER-LIGAND FREE ENERGY PREDICTED BY IDOCK:   -6.39 KCAL/MOL
REMARK 924 INTRA-LIGAND FREE ENERGY PREDICTED BY IDOCK:    0.94 KCAL/MOL
REMARK 927      BINDING AFFINITY PREDICTED BY RF-SCORE:    0.00 PKD
ROOT
HETATM    1  C   UNL     1      -9.137   4.904  67.673  1.00  0.00    -0.115 C  
HETATM    2  N   UNL     1      -8.997   6.202  68.332  1.00  0.00    -0.116 NA 
HETATM    3  C   UNL     1      -7.977   7.045  67.668  1.00  0.00    -0.114 C  
HETATM    4  C   UNL     1      -8.415   7.630  66.312  1.00  0.00    -0.139 C  
HETATM    5  N   UNL     1      -9.696   8.318  66.430  1.00  0.00    -0.243 N  
HETATM    6  C   UNL     1     -10.763   7.525  67.046  1.00  0.00    -0.297 C  
HETATM    7  C   UNL     1      -9.753   9.688  66.268  1.00  0.00    -0.240 C  
HETATM    8  O   UNL     1      -8.771  10.387  66.060  1.00  0.00    -0.142 OA 
HETATM    9  C   UNL     1     -10.287   6.931  68.391  1.00  0.00    -0.190 C  
ENDROOT
BRANCH   7  10
HETATM   10  O   UNL     1     -11.020  10.163  66.334  1.00  0.00     0.003 OA 
BRANCH  10  11
HETATM   11  C   UNL     1     -11.218  11.263  67.222  1.00  0.00    -0.296 C  
HETATM   12  N   UNL     1     -10.085  11.335  68.130  1.00  0.00    -0.177 N  
HETATM   13  C   UNL     1      -9.307  12.467  67.927  1.00  0.00    -0.195 C  
HETATM   14  C   UNL     1     -11.052  12.519  66.399  1.00  0.00    -0.290 A  
HETATM   15  N   UNL     1     -11.828  12.943  65.375  1.00  0.00    -0.378 NA 
HETATM   16  C   UNL     1      -9.924  13.199  66.812  1.00  0.00    -0.250 A  
HETATM   17  O   UNL     1      -8.343  12.854  68.561  1.00  0.00    -0.137 OA 
HETATM   18  C   UNL     1     -11.394  14.096  64.804  1.00  0.00    -0.371 A  
HETATM   19  N   UNL     1      -9.482  14.349  66.268  1.00  0.00    -0.290 NA 
HETATM   20  C   UNL     1     -10.255  14.780  65.242  1.00  0.00    -0.384 A  
BRANCH  12  21
HETATM   21  C   UNL     1     -10.009  10.495  69.245  1.00  0.00    -0.213 A  
HETATM   22 CL   UNL     1      -9.925   8.070  72.996  1.00  0.00    -0.356 Cl 
HETATM   23  C   UNL     1      -8.757   9.182  70.826  1.00  0.00    -0.285 A  
HETATM   24  C   UNL     1     -11.099   9.513  71.037  1.00  0.00    -0.363 A  
HETATM   25  N   UNL     1     -11.164  10.240  69.895  1.00  0.00    -0.279 NA 
HETATM   26  C   UNL     1      -8.792   9.972  69.675  1.00  0.00    -0.217 A  
HETATM   27  C   UNL     1      -9.929   8.970  71.537  1.00  0.00    -0.321 A  
ENDBRANCH  12  21
ENDBRANCH  10  11
ENDBRANCH   7  10
TORSDOF 3
ENDMDL
MODEL      118
REMARK 921   NORMALIZED FREE ENERGY PREDICTED BY IDOCK:   -3.93 KCAL/MOL
REMARK 922        TOTAL FREE ENERGY PREDICTED BY IDOCK:   -5.42 KCAL/MOL
REMARK 923 INTER-LIGAND FREE ENERGY PREDICTED BY IDOCK:   -4.47 KCAL/MOL
REMARK 924 INTRA-LIGAND FREE ENERGY PREDICTED BY IDOCK:   -0.95 KCAL/MOL
REMARK 927      BINDING AFFINITY PREDICTED BY RF-SCORE:    0.00 PKD
ROOT
HETATM    1  C   UNL     1      -9.226   6.163  71.578  1.00  0.00    -0.146 C  
HETATM    2  N   UNL     1      -8.294   6.787  70.640  1.00  0.00    -0.127 NA 
HETATM    3  C   UNL     1      -8.816   6.764  69.255  1.00  0.00    -0.137 C  
HETATM    4  C   UNL     1      -9.960   7.759  68.987  1.00  0.00    -0.182 C  
HETATM    5  N   UNL     1      -9.590   9.106  69.406  1.00  0.00    -0.161 N  
HETATM    6  C   UNL     1      -9.101   9.206  70.783  1.00  0.00    -0.255 C  
HETATM    7  C   UNL     1      -9.422  10.095  68.456  1.00  0.00    -0.158 C  
HETATM    8  O   UNL     1      -9.532   9.905  67.253  1.00  0.00    -0.149 OA 
HETATM    9  C   UNL     1      -7.971   8.180  71.030  1.00  0.00    -0.095 C  
ENDROOT
BRANCH   7  10
HETATM   10  O   UNL     1      -9.153  11.301  69.011  1.00  0.00    -0.104 OA 
BRANCH  10  11
HETATM   11  C   UNL     1      -8.222  12.112  68.296  1.00  0.00    -0.168 C  
HETATM   12  N   UNL     1      -8.757  13.460  68.204  1.00  0.00    -0.174 N  
HETATM   13  C   UNL     1      -8.019  14.381  68.937  1.00  0.00    -0.109 C  
HETATM   14  C   UNL     1      -7.028  12.301  69.202  1.00  0.00    -0.041 A  
HETATM   15  N   UNL     1      -6.171  11.352  69.646  1.00  0.00    -0.103 NA 
HETATM   16  C   UNL     1      -6.936  13.626  69.579  1.00  0.00     0.090 A  
HETATM   17  O   UNL     1      -8.160  15.588  69.008  1.00  0.00    -0.182 OA 
HETATM   18  C   UNL     1      -5.218  11.830  70.486  1.00  0.00    -0.123 A  
HETATM   19  N   UNL     1      -5.992  14.123  70.402  1.00  0.00    -0.158 NA 
HETATM   20  C   UNL     1      -5.130  13.178  70.851  1.00  0.00    -0.136 A  
BRANCH  12  21
HETATM   21  C   UNL     1      -9.720  13.784  67.243  1.00  0.00    -0.242 A  
HETATM   22 CL   UNL     1     -12.533  14.956  63.977  1.00  0.00    -0.222 Cl 
HETATM   23  C   UNL     1     -11.747  14.887  66.562  1.00  0.00    -0.204 A  
HETATM   24  C   UNL     1     -10.362  13.732  65.018  1.00  0.00    -0.382 A  
HETATM   25  N   UNL     1      -9.496  13.344  65.986  1.00  0.00    -0.154 NA 
HETATM   26  C   UNL     1     -10.840  14.544  67.567  1.00  0.00    -0.289 A  
HETATM   27  C   UNL     1     -11.489  14.496  65.256  1.00  0.00    -0.355 A  
ENDBRANCH  12  21
ENDBRANCH  10  11
ENDBRANCH   7  10
TORSDOF 3
ENDMDL
MODEL      119
REMARK 921   NORMALIZED FREE ENERGY PREDICTED BY IDOCK:   -3.92 KCAL/MOL
REMARK 922        TOTAL FREE ENERGY PREDICTED BY IDOCK:   -5.41 KCAL/MOL
REMARK 923 INTER-LIGAND FREE ENERGY PREDICTED BY IDOCK:   -4.42 KCAL/MOL
REMARK 924 INTRA-LIGAND FREE ENERGY PREDICTED BY IDOCK:   -0.99 KCAL/MOL
REMARK 927      BINDING AFFINITY PREDICTED BY RF-SCORE:    0.00 PKD
ROOT
HETATM    1  C   UNL     1      -6.552   7.705  64.011  1.00  0.00    -0.053 C  
HETATM    2  N   UNL     1      -6.960   8.771  63.098  1.00  0.00    -0.090 NA 
HETATM    3  C   UNL     1      -8.376   8.626  62.688  1.00  0.00    -0.187 C  
HETATM    4  C   UNL     1      -9.398   8.988  63.782  1.00  0.00     0.784 C  
HETATM    5  N   UNL     1      -9.125  10.310  64.336  1.00  0.00    -0.217 N  
HETATM    6  C   UNL     1      -7.749  10.507  64.798  1.00  0.00     0.000 C  
HETATM    7  C   UNL     1     -10.018  11.340  64.117  1.00  0.00    -0.300 C  
HETATM    8  O   UNL     1     -11.032  11.226  63.444  1.00  0.00    -0.355 OA 
HETATM    9  C   UNL     1      -6.745  10.114  63.689  1.00  0.00    -0.117 C  
ENDROOT
BRANCH   7  10
HETATM   10  O   UNL     1      -9.658  12.478  64.757  1.00  0.00    -0.006 OA 
BRANCH  10  11
HETATM   11  C   UNL     1     -10.535  12.899  65.802  1.00  0.00    -0.278 C  
HETATM   12  N   UNL     1      -9.844  12.752  67.073  1.00  0.00    -0.226 N  
HETATM   13  C   UNL     1      -9.574  13.972  67.680  1.00  0.00    -0.221 C  
HETATM   14  C   UNL     1     -10.668  14.399  65.679  1.00  0.00    -0.320 A  
HETATM   15  N   UNL     1     -11.218  15.097  64.659  1.00  0.00    -0.371 NA 
HETATM   16  C   UNL     1     -10.087  15.008  66.773  1.00  0.00    -0.254 A  
HETATM   17  O   UNL     1      -9.080  14.188  68.771  1.00  0.00    -0.165 OA 
HETATM   18  C   UNL     1     -11.149  16.443  64.821  1.00  0.00    -0.235 A  
HETATM   19  N   UNL     1     -10.017  16.340  66.960  1.00  0.00    -0.249 NA 
HETATM   20  C   UNL     1     -10.568  17.046  65.941  1.00  0.00    -0.216 A  
BRANCH  12  21
HETATM   21  C   UNL     1      -9.756  11.505  67.699  1.00  0.00    -0.174 A  
HETATM   22 CL   UNL     1      -9.180   7.462  69.510  1.00  0.00    -0.146 Cl 
HETATM   23  C   UNL     1     -10.660   9.345  68.256  1.00  0.00    -0.256 A  
HETATM   24  C   UNL     1      -8.446   9.974  68.841  1.00  0.00    -0.132 A  
HETATM   25  N   UNL     1      -8.591  11.216  68.316  1.00  0.00    -0.140 NA 
HETATM   26  C   UNL     1     -10.814  10.600  67.662  1.00  0.00    -0.346 A  
HETATM   27  C   UNL     1      -9.442   9.016  68.834  1.00  0.00    -0.151 A  
ENDBRANCH  12  21
ENDBRANCH  10  11
ENDBRANCH   7  10
TORSDOF 3
ENDMDL
MODEL      120
REMARK 921   NORMALIZED FREE ENERGY PREDICTED BY IDOCK:   -3.91 KCAL/MOL
REMARK 922        TOTAL FREE ENERGY PREDICTED BY IDOCK:   -5.40 KCAL/MOL
REMARK 923 INTER-LIGAND FREE ENERGY PREDICTED BY IDOCK:   -4.92 KCAL/MOL
REMARK 924 INTRA-LIGAND FREE ENERGY PREDICTED BY IDOCK:   -0.48 KCAL/MOL
REMARK 927      BINDING AFFINITY PREDICTED BY RF-SCORE:    0.00 PKD
ROOT
HETATM    1  C   UNL     1      -5.166  16.044  68.581  1.00  0.00    -0.098 C  
HETATM    2  N   UNL     1      -5.720  14.861  69.239  1.00  0.00    -0.096 NA 
HETATM    3  C   UNL     1      -7.059  15.131  69.809  1.00  0.00    -0.169 C  
HETATM    4  C   UNL     1      -8.187  15.243  68.766  1.00  0.00    -0.169 C  
HETATM    5  N   UNL     1      -8.196  14.085  67.879  1.00  0.00    -0.144 N  
HETATM    6  C   UNL     1      -6.907  13.786  67.250  1.00  0.00     0.172 C  
HETATM    7  C   UNL     1      -9.254  13.199  67.924  1.00  0.00    -0.207 C  
HETATM    8  O   UNL     1     -10.193  13.303  68.701  1.00  0.00    -0.232 OA 
HETATM    9  C   UNL     1      -5.792  13.702  68.317  1.00  0.00    -0.103 C  
ENDROOT
BRANCH   7  10
HETATM   10  O   UNL     1      -9.149  12.222  66.991  1.00  0.00    -0.188 OA 
BRANCH  10  11
HETATM   11  C   UNL     1      -8.684  10.961  67.471  1.00  0.00    -0.130 C  
HETATM   12  N   UNL     1      -9.825  10.072  67.614  1.00  0.00    -0.158 N  
HETATM   13  C   UNL     1      -9.798   9.017  66.711  1.00  0.00    -0.234 C  
HETATM   14  C   UNL     1      -7.918  10.322  66.337  1.00  0.00    -0.121 A  
HETATM   15  N   UNL     1      -6.770  10.758  65.769  1.00  0.00    -0.094 NA 
HETATM   16  C   UNL     1      -8.590   9.200  65.896  1.00  0.00    -0.151 A  
HETATM   17  O   UNL     1     -10.558   8.070  66.621  1.00  0.00    -0.277 OA 
HETATM   18  C   UNL     1      -6.346   9.985  64.735  1.00  0.00    -0.127 A  
HETATM   19  N   UNL     1      -8.183   8.414  64.881  1.00  0.00    -0.149 NA 
HETATM   20  C   UNL     1      -7.033   8.845  64.307  1.00  0.00    -0.089 A  
BRANCH  12  21
HETATM   21  C   UNL     1     -10.657  10.150  68.735  1.00  0.00    -0.213 A  
HETATM   22 CL   UNL     1     -13.332  10.751  72.262  1.00  0.00    -0.359 Cl 
HETATM   23  C   UNL     1     -11.102   9.792  71.073  1.00  0.00    -0.431 A  
HETATM   24  C   UNL     1     -12.628  10.940  69.661  1.00  0.00    -0.007 A  
HETATM   25  N   UNL     1     -11.849  10.762  68.566  1.00  0.00    -0.463 NA 
HETATM   26  C   UNL     1     -10.259   9.642  69.969  1.00  0.00    -0.296 A  
HETATM   27  C   UNL     1     -12.299  10.477  70.922  1.00  0.00    -0.390 A  
ENDBRANCH  12  21
ENDBRANCH  10  11
ENDBRANCH   7  10
TORSDOF 3
ENDMDL
MODEL      121
REMARK 921   NORMALIZED FREE ENERGY PREDICTED BY IDOCK:   -3.84 KCAL/MOL
REMARK 922        TOTAL FREE ENERGY PREDICTED BY IDOCK:   -5.33 KCAL/MOL
REMARK 923 INTER-LIGAND FREE ENERGY PREDICTED BY IDOCK:   -4.73 KCAL/MOL
REMARK 924 INTRA-LIGAND FREE ENERGY PREDICTED BY IDOCK:   -0.60 KCAL/MOL
REMARK 927      BINDING AFFINITY PREDICTED BY RF-SCORE:    0.00 PKD
ROOT
HETATM    1  C   UNL     1      -9.540  10.731  62.524  1.00  0.00    -0.202 C  
HETATM    2  N   UNL     1      -9.196  11.490  63.725  1.00  0.00    -0.033 NA 
HETATM    3  C   UNL     1     -10.380  12.171  64.298  1.00  0.00    -0.334 C  
HETATM    4  C   UNL     1     -11.373  11.234  65.011  1.00  0.00     0.067 C  
HETATM    5  N   UNL     1     -10.692  10.405  65.999  1.00  0.00    -0.055 N  
HETATM    6  C   UNL     1      -9.532   9.672  65.487  1.00  0.00    -0.266 C  
HETATM    7  C   UNL     1     -10.954  10.589  67.342  1.00  0.00    -0.288 C  
HETATM    8  O   UNL     1     -11.714  11.445  67.773  1.00  0.00    -0.533 OA 
HETATM    9  C   UNL     1      -8.565  10.632  64.757  1.00  0.00    -0.130 C  
ENDROOT
BRANCH   7  10
HETATM   10  O   UNL     1     -10.301   9.694  68.122  1.00  0.00    -0.188 OA 
BRANCH  10  11
HETATM   11  C   UNL     1      -9.796  10.207  69.354  1.00  0.00    -0.229 C  
HETATM   12  N   UNL     1      -9.180   9.116  70.091  1.00  0.00    -0.189 N  
HETATM   13  C   UNL     1      -7.803   9.258  70.206  1.00  0.00    -0.141 C  
HETATM   14  C   UNL     1      -8.608  11.074  69.008  1.00  0.00    -0.068 A  
HETATM   15  N   UNL     1      -8.606  12.223  68.294  1.00  0.00    -0.178 NA 
HETATM   16  C   UNL     1      -7.454  10.496  69.498  1.00  0.00    -0.146 A  
HETATM   17  O   UNL     1      -7.013   8.563  70.819  1.00  0.00    -0.042 OA 
HETATM   18  C   UNL     1      -7.367  12.750  68.115  1.00  0.00    -0.118 A  
HETATM   19  N   UNL     1      -6.217  11.007  69.341  1.00  0.00    -0.061 NA 
HETATM   20  C   UNL     1      -6.207  12.160  68.627  1.00  0.00    -0.059 A  
BRANCH  12  21
HETATM   21  C   UNL     1      -9.960   8.219  70.827  1.00  0.00    -0.190 A  
HETATM   22 CL   UNL     1     -12.632   5.285  72.878  1.00  0.00     0.256 Cl 
HETATM   23  C   UNL     1     -11.445   7.702  72.649  1.00  0.00    -0.403 A  
HETATM   24  C   UNL     1     -10.878   6.099  70.992  1.00  0.00    -0.279 A  
HETATM   25  N   UNL     1     -10.046   6.958  70.353  1.00  0.00    -0.187 NA 
HETATM   26  C   UNL     1     -10.634   8.620  71.977  1.00  0.00    -0.421 A  
HETATM   27  C   UNL     1     -11.591   6.424  72.132  1.00  0.00    -0.313 A  
ENDBRANCH  12  21
ENDBRANCH  10  11
ENDBRANCH   7  10
TORSDOF 3
ENDMDL
MODEL      122
REMARK 921   NORMALIZED FREE ENERGY PREDICTED BY IDOCK:   -3.83 KCAL/MOL
REMARK 922        TOTAL FREE ENERGY PREDICTED BY IDOCK:   -5.31 KCAL/MOL
REMARK 923 INTER-LIGAND FREE ENERGY PREDICTED BY IDOCK:   -6.80 KCAL/MOL
REMARK 924 INTRA-LIGAND FREE ENERGY PREDICTED BY IDOCK:    1.49 KCAL/MOL
REMARK 927      BINDING AFFINITY PREDICTED BY RF-SCORE:    0.00 PKD
ROOT
HETATM    1  C   UNL     1     -12.379  16.017  72.134  1.00  0.00    -0.482 C  
HETATM    2  N   UNL     1     -11.330  15.298  71.413  1.00  0.00    -0.369 NA 
HETATM    3  C   UNL     1     -11.794  13.968  70.957  1.00  0.00    -0.120 C  
HETATM    4  C   UNL     1     -12.772  14.006  69.768  1.00  0.00     0.077 C  
HETATM    5  N   UNL     1     -12.229  14.799  68.670  1.00  0.00    -0.150 N  
HETATM    6  C   UNL     1     -11.785  16.143  69.047  1.00  0.00    -0.254 C  
HETATM    7  C   UNL     1     -11.882  14.178  67.486  1.00  0.00    -0.401 C  
HETATM    8  O   UNL     1     -11.971  12.973  67.301  1.00  0.00    -0.366 OA 
HETATM    9  C   UNL     1     -10.825  16.076  70.256  1.00  0.00    -0.321 C  
ENDROOT
BRANCH   7  10
HETATM   10  O   UNL     1     -11.465  15.059  66.545  1.00  0.00    -0.330 OA 
BRANCH  10  11
HETATM   11  C   UNL     1     -10.274  14.696  65.849  1.00  0.00    -0.326 C  
HETATM   12  N   UNL     1      -9.305  14.205  66.814  1.00  0.00    -0.272 N  
HETATM   13  C   UNL     1      -9.040  12.850  66.666  1.00  0.00    -0.177 C  
HETATM   14  C   UNL     1     -10.597  13.451  65.056  1.00  0.00    -0.358 A  
HETATM   15  N   UNL     1     -11.475  13.330  64.033  1.00  0.00    -0.394 NA 
HETATM   16  C   UNL     1      -9.883  12.382  65.557  1.00  0.00    -0.200 A  
HETATM   17  O   UNL     1      -8.233  12.160  67.262  1.00  0.00    -0.164 OA 
HETATM   18  C   UNL     1     -11.577  12.065  63.550  1.00  0.00    -0.461 A  
HETATM   19  N   UNL     1      -9.960  11.122  65.087  1.00  0.00    -0.255 NA 
HETATM   20  C   UNL     1     -10.837  10.994  64.061  1.00  0.00    -0.166 A  
BRANCH  12  21
HETATM   21  C   UNL     1      -8.543  15.094  67.578  1.00  0.00    -0.180 A  
HETATM   22 CL   UNL     1      -5.969  18.055  69.716  1.00  0.00    -0.239 Cl 
HETATM   23  C   UNL     1      -6.933  15.563  69.305  1.00  0.00    -0.171 A  
HETATM   24  C   UNL     1      -7.823  17.270  67.915  1.00  0.00    -0.196 A  
HETATM   25  N   UNL     1      -8.630  16.402  67.256  1.00  0.00    -0.176 NA 
HETATM   26  C   UNL     1      -7.717  14.643  68.604  1.00  0.00    -0.135 A  
HETATM   27  C   UNL     1      -6.967  16.900  68.936  1.00  0.00    -0.213 A  
ENDBRANCH  12  21
ENDBRANCH  10  11
ENDBRANCH   7  10
TORSDOF 3
ENDMDL
MODEL      123
REMARK 921   NORMALIZED FREE ENERGY PREDICTED BY IDOCK:   -3.82 KCAL/MOL
REMARK 922        TOTAL FREE ENERGY PREDICTED BY IDOCK:   -5.30 KCAL/MOL
REMARK 923 INTER-LIGAND FREE ENERGY PREDICTED BY IDOCK:   -6.33 KCAL/MOL
REMARK 924 INTRA-LIGAND FREE ENERGY PREDICTED BY IDOCK:    1.03 KCAL/MOL
REMARK 927      BINDING AFFINITY PREDICTED BY RF-SCORE:    0.00 PKD
ROOT
HETATM    1  C   UNL     1      -9.508   8.737  70.046  1.00  0.00    -0.169 C  
HETATM    2  N   UNL     1      -8.466   9.115  69.092  1.00  0.00    -0.129 NA 
HETATM    3  C   UNL     1      -8.799   8.674  67.718  1.00  0.00    -0.136 C  
HETATM    4  C   UNL     1      -9.909   9.494  67.035  1.00  0.00    -0.190 C  
HETATM    5  N   UNL     1      -9.614  10.922  67.092  1.00  0.00    -0.164 N  
HETATM    6  C   UNL     1      -9.314  11.431  68.432  1.00  0.00    -0.194 C  
HETATM    7  C   UNL     1      -9.333  11.608  65.927  1.00  0.00    -0.218 C  
HETATM    8  O   UNL     1      -9.279  11.079  64.826  1.00  0.00    -0.205 OA 
HETATM    9  C   UNL     1      -8.215  10.576  69.102  1.00  0.00    -0.150 C  
ENDROOT
BRANCH   7  10
HETATM   10  O   UNL     1      -9.155  12.934  66.140  1.00  0.00    -0.090 OA 
BRANCH  10  11
HETATM   11  C   UNL     1     -10.341  13.676  66.420  1.00  0.00    -0.286 C  
HETATM   12  N   UNL     1     -10.131  15.055  66.012  1.00  0.00    -0.282 N  
HETATM   13  C   UNL     1     -10.923  15.421  64.932  1.00  0.00    -0.437 C  
HETATM   14  C   UNL     1     -11.388  13.206  65.437  1.00  0.00    -0.297 A  
HETATM   15  N   UNL     1     -11.937  11.972  65.345  1.00  0.00    -0.403 NA 
HETATM   16  C   UNL     1     -11.702  14.230  64.567  1.00  0.00    -0.418 A  
HETATM   17  O   UNL     1     -11.037  16.512  64.404  1.00  0.00    -0.894 OA 
HETATM   18  C   UNL     1     -12.825  11.847  64.325  1.00  0.00     0.011 A  
HETATM   19  N   UNL     1     -12.587  14.131  63.557  1.00  0.00    -0.747 NA 
HETATM   20  C   UNL     1     -13.142  12.898  63.459  1.00  0.00     0.681 A  
BRANCH  12  21
HETATM   21  C   UNL     1      -9.426  15.943  66.830  1.00  0.00    -0.227 A  
HETATM   22 CL   UNL     1      -6.909  18.548  69.445  1.00  0.00    -0.228 Cl 
HETATM   23  C   UNL     1      -9.200  17.247  68.840  1.00  0.00    -0.182 A  
HETATM   24  C   UNL     1      -7.455  17.090  67.237  1.00  0.00    -0.163 A  
HETATM   25  N   UNL     1      -8.196  16.311  66.412  1.00  0.00    -0.311 NA 
HETATM   26  C   UNL     1      -9.963  16.403  68.030  1.00  0.00    -0.242 A  
HETATM   27  C   UNL     1      -7.910  17.576  68.449  1.00  0.00    -0.263 A  
ENDBRANCH  12  21
ENDBRANCH  10  11
ENDBRANCH   7  10
TORSDOF 3
ENDMDL
MODEL      124
REMARK 921   NORMALIZED FREE ENERGY PREDICTED BY IDOCK:   -3.81 KCAL/MOL
REMARK 922        TOTAL FREE ENERGY PREDICTED BY IDOCK:   -5.28 KCAL/MOL
REMARK 923 INTER-LIGAND FREE ENERGY PREDICTED BY IDOCK:   -4.28 KCAL/MOL
REMARK 924 INTRA-LIGAND FREE ENERGY PREDICTED BY IDOCK:   -1.01 KCAL/MOL
REMARK 927      BINDING AFFINITY PREDICTED BY RF-SCORE:    0.00 PKD
ROOT
HETATM    1  C   UNL     1      -7.023   3.983  68.672  1.00  0.00    -0.047 C  
HETATM    2  N   UNL     1      -7.561   4.474  67.404  1.00  0.00    -0.081 NA 
HETATM    3  C   UNL     1      -9.040   4.402  67.375  1.00  0.00    -0.132 C  
HETATM    4  C   UNL     1      -9.748   5.462  68.239  1.00  0.00    -0.135 C  
HETATM    5  N   UNL     1      -9.263   6.801  67.926  1.00  0.00    -0.114 N  
HETATM    6  C   UNL     1      -7.806   6.951  67.975  1.00  0.00    -0.114 C  
HETATM    7  C   UNL     1     -10.109   7.712  67.326  1.00  0.00    -0.237 C  
HETATM    8  O   UNL     1     -11.260   7.454  66.999  1.00  0.00    -0.145 OA 
HETATM    9  C   UNL     1      -7.122   5.861  67.119  1.00  0.00    -0.070 C  
ENDROOT
BRANCH   7  10
HETATM   10  O   UNL     1      -9.532   8.927  67.170  1.00  0.00    -0.146 OA 
BRANCH  10  11
HETATM   11  C   UNL     1      -9.984   9.941  68.065  1.00  0.00    -0.152 C  
HETATM   12  N   UNL     1      -8.830  10.509  68.742  1.00  0.00    -0.150 N  
HETATM   13  C   UNL     1      -8.594  11.830  68.382  1.00  0.00    -0.156 C  
HETATM   14  C   UNL     1     -10.456  11.095  67.212  1.00  0.00    -0.226 A  
HETATM   15  N   UNL     1     -11.497  11.109  66.347  1.00  0.00    -0.196 NA 
HETATM   16  C   UNL     1      -9.624  12.181  67.396  1.00  0.00    -0.177 A  
HETATM   17  O   UNL     1      -7.760  12.602  68.818  1.00  0.00    -0.091 OA 
HETATM   18  C   UNL     1     -11.644  12.289  65.691  1.00  0.00    -0.380 A  
HETATM   19  N   UNL     1      -9.758  13.363  66.764  1.00  0.00    -0.255 NA 
HETATM   20  C   UNL     1     -10.800  13.384  65.897  1.00  0.00    -0.274 A  
BRANCH  12  21
HETATM   21  C   UNL     1      -8.248   9.857  69.833  1.00  0.00    -0.184 A  
HETATM   22 CL   UNL     1      -6.197   7.584  73.087  1.00  0.00    -0.059 Cl 
HETATM   23  C   UNL     1      -8.398   8.532  71.837  1.00  0.00    -0.218 A  
HETATM   24  C   UNL     1      -6.311   9.146  70.886  1.00  0.00    -0.070 A  
HETATM   25  N   UNL     1      -6.899   9.859  69.894  1.00  0.00    -0.080 NA 
HETATM   26  C   UNL     1      -9.026   9.217  70.793  1.00  0.00    -0.296 A  
HETATM   27  C   UNL     1      -7.013   8.473  71.869  1.00  0.00    -0.090 A  
ENDBRANCH  12  21
ENDBRANCH  10  11
ENDBRANCH   7  10
TORSDOF 3
ENDMDL
MODEL      125
REMARK 921   NORMALIZED FREE ENERGY PREDICTED BY IDOCK:   -3.80 KCAL/MOL
REMARK 922        TOTAL FREE ENERGY PREDICTED BY IDOCK:   -5.28 KCAL/MOL
REMARK 923 INTER-LIGAND FREE ENERGY PREDICTED BY IDOCK:   -4.66 KCAL/MOL
REMARK 924 INTRA-LIGAND FREE ENERGY PREDICTED BY IDOCK:   -0.62 KCAL/MOL
REMARK 927      BINDING AFFINITY PREDICTED BY RF-SCORE:    0.00 PKD
ROOT
HETATM    1  C   UNL     1      -8.868  18.493  67.990  1.00  0.00    -0.298 C  
HETATM    2  N   UNL     1      -9.357  17.402  67.148  1.00  0.00    -0.240 NA 
HETATM    3  C   UNL     1      -8.274  16.824  66.320  1.00  0.00    -0.324 C  
HETATM    4  C   UNL     1      -7.271  15.952  67.098  1.00  0.00    -0.219 C  
HETATM    5  N   UNL     1      -7.961  14.932  67.880  1.00  0.00    -0.128 N  
HETATM    6  C   UNL     1      -9.021  15.444  68.752  1.00  0.00    -0.196 C  
HETATM    7  C   UNL     1      -7.816  13.601  67.545  1.00  0.00    -0.177 C  
HETATM    8  O   UNL     1      -7.157  13.210  66.592  1.00  0.00     0.449 OA 
HETATM    9  C   UNL     1      -9.999  16.333  67.950  1.00  0.00    -0.241 C  
ENDROOT
BRANCH   7  10
HETATM   10  O   UNL     1      -8.459  12.779  68.409  1.00  0.00    -0.164 OA 
BRANCH  10  11
HETATM   11  C   UNL     1      -9.597  12.101  67.881  1.00  0.00    -0.198 C  
HETATM   12  N   UNL     1      -9.313  10.676  67.848  1.00  0.00    -0.147 N  
HETATM   13  C   UNL     1     -10.095   9.952  68.739  1.00  0.00    -0.174 C  
HETATM   14  C   UNL     1     -10.680  12.188  68.931  1.00  0.00    -0.175 A  
HETATM   15  N   UNL     1     -11.300  13.302  69.385  1.00  0.00    -0.246 NA 
HETATM   16  C   UNL     1     -10.944  10.930  69.432  1.00  0.00    -0.252 A  
HETATM   17  O   UNL     1     -10.152   8.747  68.900  1.00  0.00    -0.187 OA 
HETATM   18  C   UNL     1     -12.204  13.059  70.368  1.00  0.00    -0.310 A  
HETATM   19  N   UNL     1     -11.844  10.665  70.399  1.00  0.00    -0.319 NA 
HETATM   20  C   UNL     1     -12.470  11.777  70.858  1.00  0.00    -0.318 A  
BRANCH  12  21
HETATM   21  C   UNL     1      -8.550  10.122  66.815  1.00  0.00    -0.126 A  
HETATM   22 CL   UNL     1      -6.418   8.261  63.358  1.00  0.00    -0.080 Cl 
HETATM   23  C   UNL     1      -6.868   8.605  66.001  1.00  0.00    -0.065 A  
HETATM   24  C   UNL     1      -8.175   9.941  64.536  1.00  0.00    -0.162 A  
HETATM   25  N   UNL     1      -8.830  10.539  65.562  1.00  0.00    -0.177 NA 
HETATM   26  C   UNL     1      -7.568   9.169  67.071  1.00  0.00    -0.091 A  
HETATM   27  C   UNL     1      -7.196   8.979  64.706  1.00  0.00    -0.096 A  
ENDBRANCH  12  21
ENDBRANCH  10  11
ENDBRANCH   7  10
TORSDOF 3
ENDMDL
MODEL      126
REMARK 921   NORMALIZED FREE ENERGY PREDICTED BY IDOCK:   -3.80 KCAL/MOL
REMARK 922        TOTAL FREE ENERGY PREDICTED BY IDOCK:   -5.27 KCAL/MOL
REMARK 923 INTER-LIGAND FREE ENERGY PREDICTED BY IDOCK:   -4.92 KCAL/MOL
REMARK 924 INTRA-LIGAND FREE ENERGY PREDICTED BY IDOCK:   -0.36 KCAL/MOL
REMARK 927      BINDING AFFINITY PREDICTED BY RF-SCORE:    0.00 PKD
ROOT
HETATM    1  C   UNL     1      -9.820  19.141  66.000  1.00  0.00    -0.258 C  
HETATM    2  N   UNL     1      -8.738  18.665  66.861  1.00  0.00    -0.277 NA 
HETATM    3  C   UNL     1      -9.232  18.300  68.208  1.00  0.00    -0.309 C  
HETATM    4  C   UNL     1     -10.031  16.985  68.260  1.00  0.00    -0.285 C  
HETATM    5  N   UNL     1      -9.285  15.895  67.640  1.00  0.00    -0.207 N  
HETATM    6  C   UNL     1      -8.799  16.178  66.288  1.00  0.00    -0.336 C  
HETATM    7  C   UNL     1      -8.825  14.852  68.420  1.00  0.00    -0.178 C  
HETATM    8  O   UNL     1      -8.977  14.794  69.632  1.00  0.00     0.032 OA 
HETATM    9  C   UNL     1      -8.022  17.514  66.261  1.00  0.00    -0.268 C  
ENDROOT
BRANCH   7  10
HETATM   10  O   UNL     1      -8.219  13.888  67.686  1.00  0.00    -0.150 OA 
BRANCH  10  11
HETATM   11  C   UNL     1      -8.549  12.546  68.041  1.00  0.00    -0.185 C  
HETATM   12  N   UNL     1      -8.614  11.749  66.827  1.00  0.00    -0.183 N  
HETATM   13  C   UNL     1      -7.601  10.802  66.753  1.00  0.00    -0.129 C  
HETATM   14  C   UNL     1      -7.338  11.972  68.738  1.00  0.00    -0.098 A  
HETATM   15  N   UNL     1      -6.799  12.367  69.915  1.00  0.00     0.219 NA 
HETATM   16  C   UNL     1      -6.788  10.969  67.965  1.00  0.00    -0.067 A  
HETATM   17  O   UNL     1      -7.421   9.941  65.911  1.00  0.00    -0.100 OA 
HETATM   18  C   UNL     1      -5.680  11.679  70.260  1.00  0.00    -0.152 A  
HETATM   19  N   UNL     1      -5.686  10.267  68.292  1.00  0.00    -0.041 NA 
HETATM   20  C   UNL     1      -5.142  10.657  69.471  1.00  0.00    -0.038 A  
BRANCH  12  21
HETATM   21  C   UNL     1      -9.752  11.775  66.015  1.00  0.00    -0.232 A  
HETATM   22 CL   UNL     1     -13.182  11.987  63.161  1.00  0.00     0.012 Cl 
HETATM   23  C   UNL     1     -11.998  12.495  65.537  1.00  0.00    -0.500 A  
HETATM   24  C   UNL     1     -10.721  11.234  63.982  1.00  0.00    -0.377 A  
HETATM   25  N   UNL     1      -9.667  11.136  64.829  1.00  0.00    -0.243 NA 
HETATM   26  C   UNL     1     -10.905  12.451  66.406  1.00  0.00    -0.291 A  
HETATM   27  C   UNL     1     -11.895  11.897  64.290  1.00  0.00    -0.279 A  
ENDBRANCH  12  21
ENDBRANCH  10  11
ENDBRANCH   7  10
TORSDOF 3
ENDMDL
MODEL      127
REMARK 921   NORMALIZED FREE ENERGY PREDICTED BY IDOCK:   -3.78 KCAL/MOL
REMARK 922        TOTAL FREE ENERGY PREDICTED BY IDOCK:   -5.25 KCAL/MOL
REMARK 923 INTER-LIGAND FREE ENERGY PREDICTED BY IDOCK:   -4.49 KCAL/MOL
REMARK 924 INTRA-LIGAND FREE ENERGY PREDICTED BY IDOCK:   -0.76 KCAL/MOL
REMARK 927      BINDING AFFINITY PREDICTED BY RF-SCORE:    0.00 PKD
ROOT
HETATM    1  C   UNL     1     -12.700  13.947  64.011  1.00  0.00     0.153 C  
HETATM    2  N   UNL     1     -12.554  12.535  64.360  1.00  0.00    -0.649 NA 
HETATM    3  C   UNL     1     -11.603  11.845  63.459  1.00  0.00    -0.441 C  
HETATM    4  C   UNL     1     -10.124  12.196  63.702  1.00  0.00    -0.385 C  
HETATM    5  N   UNL     1      -9.768  12.019  65.106  1.00  0.00    -0.195 N  
HETATM    6  C   UNL     1     -10.649  12.710  66.052  1.00  0.00    -0.270 C  
HETATM    7  C   UNL     1      -8.884  11.022  65.467  1.00  0.00    -0.169 C  
HETATM    8  O   UNL     1      -8.391  10.234  64.672  1.00  0.00    -0.162 OA 
HETATM    9  C   UNL     1     -12.127  12.358  65.769  1.00  0.00    -0.311 C  
ENDROOT
BRANCH   7  10
HETATM   10  O   UNL     1      -8.602  11.037  66.792  1.00  0.00    -0.142 OA 
BRANCH  10  11
HETATM   11  C   UNL     1      -7.259  11.380  67.130  1.00  0.00    -0.134 C  
HETATM   12  N   UNL     1      -7.272  12.122  68.380  1.00  0.00    -0.090 N  
HETATM   13  C   UNL     1      -6.679  11.424  69.424  1.00  0.00    -0.122 C  
HETATM   14  C   UNL     1      -6.570  10.094  67.526  1.00  0.00    -0.068 A  
HETATM   15  N   UNL     1      -6.315   9.021  66.743  1.00  0.00    -0.062 NA 
HETATM   16  C   UNL     1      -6.256  10.131  68.870  1.00  0.00    -0.043 A  
HETATM   17  O   UNL     1      -6.467  11.792  70.565  1.00  0.00    -0.168 OA 
HETATM   18  C   UNL     1      -5.717   7.996  67.404  1.00  0.00    -0.038 A  
HETATM   19  N   UNL     1      -5.653   9.131  69.542  1.00  0.00    -0.034 NA 
HETATM   20  C   UNL     1      -5.393   8.052  68.763  1.00  0.00    -0.027 A  
BRANCH  12  21
HETATM   21  C   UNL     1      -7.585  13.484  68.399  1.00  0.00    -0.133 A  
HETATM   22 CL   UNL     1      -8.828  17.771  68.210  1.00  0.00    -0.271 Cl 
HETATM   23  C   UNL     1      -6.976  15.802  68.176  1.00  0.00    -0.125 A  
HETATM   24  C   UNL     1      -9.225  15.117  68.514  1.00  0.00    -0.192 A  
HETATM   25  N   UNL     1      -8.882  13.808  68.593  1.00  0.00    -0.105 NA 
HETATM   26  C   UNL     1      -6.607  14.455  68.202  1.00  0.00    -0.133 A  
HETATM   27  C   UNL     1      -8.316  16.138  68.308  1.00  0.00    -0.171 A  
ENDBRANCH  12  21
ENDBRANCH  10  11
ENDBRANCH   7  10
TORSDOF 3
ENDMDL
MODEL      128
REMARK 921   NORMALIZED FREE ENERGY PREDICTED BY IDOCK:   -3.73 KCAL/MOL
REMARK 922        TOTAL FREE ENERGY PREDICTED BY IDOCK:   -5.20 KCAL/MOL
REMARK 923 INTER-LIGAND FREE ENERGY PREDICTED BY IDOCK:   -4.09 KCAL/MOL
REMARK 924 INTRA-LIGAND FREE ENERGY PREDICTED BY IDOCK:   -1.11 KCAL/MOL
REMARK 927      BINDING AFFINITY PREDICTED BY RF-SCORE:    0.00 PKD
ROOT
HETATM    1  C   UNL     1     -10.469   5.987  73.099  1.00  0.00    -0.230 C  
HETATM    2  N   UNL     1     -10.096   7.356  73.449  1.00  0.00    -0.309 NA 
HETATM    3  C   UNL     1      -8.636   7.487  73.658  1.00  0.00    -0.196 C  
HETATM    4  C   UNL     1      -7.800   7.448  72.365  1.00  0.00    -0.096 C  
HETATM    5  N   UNL     1      -8.300   8.412  71.390  1.00  0.00    -0.132 N  
HETATM    6  C   UNL     1      -9.733   8.311  71.109  1.00  0.00    -0.165 C  
HETATM    7  C   UNL     1      -7.524   9.503  71.049  1.00  0.00     0.072 C  
HETATM    8  O   UNL     1      -6.433   9.740  71.547  1.00  0.00    -0.308 OA 
HETATM    9  C   UNL     1     -10.545   8.329  72.424  1.00  0.00    -0.337 C  
ENDROOT
BRANCH   7  10
HETATM   10  O   UNL     1      -8.095  10.259  70.082  1.00  0.00    -0.089 OA 
BRANCH  10  11
HETATM   11  C   UNL     1      -7.294  10.481  68.922  1.00  0.00    -0.098 C  
HETATM   12  N   UNL     1      -8.124  10.297  67.743  1.00  0.00    -0.103 N  
HETATM   13  C   UNL     1      -8.330  11.479  67.043  1.00  0.00    -0.165 C  
HETATM   14  C   UNL     1      -6.996  11.962  68.878  1.00  0.00    -0.110 A  
HETATM   15  N   UNL     1      -6.274  12.685  69.765  1.00  0.00    -0.129 NA 
HETATM   16  C   UNL     1      -7.622  12.529  67.786  1.00  0.00    -0.138 A  
HETATM   17  O   UNL     1      -8.910  11.648  65.986  1.00  0.00    -0.188 OA 
HETATM   18  C   UNL     1      -6.222  14.010  69.473  1.00  0.00    -0.117 A  
HETATM   19  N   UNL     1      -7.574  13.838  67.472  1.00  0.00    -0.175 NA 
HETATM   20  C   UNL     1      -6.852  14.569  68.356  1.00  0.00    -0.104 A  
BRANCH  12  21
HETATM   21  C   UNL     1      -8.404   9.016  67.259  1.00  0.00    -0.111 A  
HETATM   22 CL   UNL     1      -9.424   4.843  66.034  1.00  0.00    -0.156 Cl 
HETATM   23  C   UNL     1      -7.729   6.937  66.252  1.00  0.00    -0.094 A  
HETATM   24  C   UNL     1      -9.940   7.295  67.042  1.00  0.00    -0.224 A  
HETATM   25  N   UNL     1      -9.670   8.571  67.411  1.00  0.00    -0.159 NA 
HETATM   26  C   UNL     1      -7.415   8.231  66.672  1.00  0.00    -0.086 A  
HETATM   27  C   UNL     1      -9.010   6.449  66.465  1.00  0.00    -0.145 A  
ENDBRANCH  12  21
ENDBRANCH  10  11
ENDBRANCH   7  10
TORSDOF 3
ENDMDL
MODEL      129
REMARK 921   NORMALIZED FREE ENERGY PREDICTED BY IDOCK:   -3.73 KCAL/MOL
REMARK 922        TOTAL FREE ENERGY PREDICTED BY IDOCK:   -5.19 KCAL/MOL
REMARK 923 INTER-LIGAND FREE ENERGY PREDICTED BY IDOCK:   -6.22 KCAL/MOL
REMARK 924 INTRA-LIGAND FREE ENERGY PREDICTED BY IDOCK:    1.03 KCAL/MOL
REMARK 927      BINDING AFFINITY PREDICTED BY RF-SCORE:    0.00 PKD
ROOT
HETATM    1  C   UNL     1      -5.273   8.185  70.133  1.00  0.00    -0.023 C  
HETATM    2  N   UNL     1      -6.724   8.332  70.027  1.00  0.00    -0.042 NA 
HETATM    3  C   UNL     1      -7.171   9.670  70.477  1.00  0.00    -0.136 C  
HETATM    4  C   UNL     1      -6.849  10.813  69.497  1.00  0.00    -0.116 C  
HETATM    5  N   UNL     1      -7.328  10.502  68.154  1.00  0.00    -0.087 N  
HETATM    6  C   UNL     1      -6.888   9.206  67.633  1.00  0.00    -0.077 C  
HETATM    7  C   UNL     1      -8.360  11.240  67.609  1.00  0.00    -0.123 C  
HETATM    8  O   UNL     1      -8.937  12.140  68.204  1.00  0.00    -0.184 OA 
HETATM    9  C   UNL     1      -7.203   8.081  68.646  1.00  0.00    -0.081 C  
ENDROOT
BRANCH   7  10
HETATM   10  O   UNL     1      -8.636  10.877  66.334  1.00  0.00    -0.149 OA 
BRANCH  10  11
HETATM   11  C   UNL     1     -10.017  10.667  66.040  1.00  0.00    -0.239 C  
HETATM   12  N   UNL     1     -10.720  10.408  67.286  1.00  0.00    -0.272 N  
HETATM   13  C   UNL     1     -11.606  11.424  67.622  1.00  0.00    -0.238 C  
HETATM   14  C   UNL     1     -10.580  12.005  65.624  1.00  0.00    -0.265 A  
HETATM   15  N   UNL     1     -10.249  12.736  64.534  1.00  0.00    -0.329 NA 
HETATM   16  C   UNL     1     -11.491  12.439  66.566  1.00  0.00    -0.371 A  
HETATM   17  O   UNL     1     -12.389  11.477  68.552  1.00  0.00    -0.459 OA 
HETATM   18  C   UNL     1     -10.903  13.924  64.457  1.00  0.00    -0.368 A  
HETATM   19  N   UNL     1     -12.158  13.608  66.504  1.00  0.00    -0.421 NA 
HETATM   20  C   UNL     1     -11.832  14.345  65.413  1.00  0.00    -0.366 A  
BRANCH  12  21
HETATM   21  C   UNL     1     -10.691   9.140  67.874  1.00  0.00    -0.162 A  
HETATM   22 CL   UNL     1     -10.315   5.198  69.942  1.00  0.00    -0.364 Cl 
HETATM   23  C   UNL     1     -10.536   6.743  67.735  1.00  0.00    -0.307 A  
HETATM   24  C   UNL     1     -10.580   7.884  69.817  1.00  0.00    -0.242 A  
HETATM   25  N   UNL     1     -10.712   9.095  69.223  1.00  0.00    -0.213 NA 
HETATM   26  C   UNL     1     -10.618   7.985  67.101  1.00  0.00    -0.367 A  
HETATM   27  C   UNL     1     -10.490   6.693  69.120  1.00  0.00    -0.219 A  
ENDBRANCH  12  21
ENDBRANCH  10  11
ENDBRANCH   7  10
TORSDOF 3
ENDMDL
MODEL      130
REMARK 921   NORMALIZED FREE ENERGY PREDICTED BY IDOCK:   -3.69 KCAL/MOL
REMARK 922        TOTAL FREE ENERGY PREDICTED BY IDOCK:   -5.14 KCAL/MOL
REMARK 923 INTER-LIGAND FREE ENERGY PREDICTED BY IDOCK:   -4.11 KCAL/MOL
REMARK 924 INTRA-LIGAND FREE ENERGY PREDICTED BY IDOCK:   -1.03 KCAL/MOL
REMARK 927      BINDING AFFINITY PREDICTED BY RF-SCORE:    0.00 PKD
ROOT
HETATM    1  C   UNL     1      -6.468   2.621  66.822  1.00  0.00    -0.035 C  
HETATM    2  N   UNL     1      -6.067   3.796  67.596  1.00  0.00    -0.028 NA 
HETATM    3  C   UNL     1      -5.717   4.935  66.717  1.00  0.00    -0.018 C  
HETATM    4  C   UNL     1      -6.923   5.621  66.049  1.00  0.00    -0.063 C  
HETATM    5  N   UNL     1      -7.930   5.987  67.039  1.00  0.00    -0.102 N  
HETATM    6  C   UNL     1      -8.350   4.893  67.918  1.00  0.00    -0.103 C  
HETATM    7  C   UNL     1      -8.182   7.320  67.297  1.00  0.00    -0.115 C  
HETATM    8  O   UNL     1      -7.578   8.239  66.762  1.00  0.00    -0.088 OA 
HETATM    9  C   UNL     1      -7.120   4.208  68.555  1.00  0.00    -0.055 C  
ENDROOT
BRANCH   7  10
HETATM   10  O   UNL     1      -9.191   7.492  68.183  1.00  0.00    -0.138 OA 
BRANCH  10  11
HETATM   11  C   UNL     1      -8.998   8.533  69.141  1.00  0.00    -0.146 C  
HETATM   12  N   UNL     1     -10.157   9.409  69.112  1.00  0.00    -0.188 N  
HETATM   13  C   UNL     1     -10.905   9.347  70.281  1.00  0.00    -0.258 C  
HETATM   14  C   UNL     1      -9.112   7.893  70.505  1.00  0.00    -0.154 A  
HETATM   15  N   UNL     1      -8.295   6.961  71.049  1.00  0.00    -0.125 NA 
HETATM   16  C   UNL     1     -10.238   8.366  71.147  1.00  0.00    -0.202 A  
HETATM   17  O   UNL     1     -11.880  10.002  70.599  1.00  0.00    -0.285 OA 
HETATM   18  C   UNL     1      -8.686   6.548  72.282  1.00  0.00    -0.130 A  
HETATM   19  N   UNL     1     -10.638   7.978  72.374  1.00  0.00    -0.281 NA 
HETATM   20  C   UNL     1      -9.824   7.046  72.926  1.00  0.00    -0.177 A  
BRANCH  12  21
HETATM   21  C   UNL     1     -10.287  10.392  68.126  1.00  0.00    -0.172 A  
HETATM   22 CL   UNL     1     -10.519  13.318  64.758  1.00  0.00    -0.380 Cl 
HETATM   23  C   UNL     1      -9.968  12.635  67.315  1.00  0.00    -0.212 A  
HETATM   24  C   UNL     1     -10.855  10.913  65.942  1.00  0.00    -0.062 A  
HETATM   25  N   UNL     1     -10.814  10.003  66.946  1.00  0.00    -0.142 NA 
HETATM   26  C   UNL     1      -9.868  11.700  68.348  1.00  0.00    -0.202 A  
HETATM   27  C   UNL     1     -10.447  12.227  66.079  1.00  0.00    -0.254 A  
ENDBRANCH  12  21
ENDBRANCH  10  11
ENDBRANCH   7  10
TORSDOF 3
ENDMDL
MODEL      131
REMARK 921   NORMALIZED FREE ENERGY PREDICTED BY IDOCK:   -3.68 KCAL/MOL
REMARK 922        TOTAL FREE ENERGY PREDICTED BY IDOCK:   -5.13 KCAL/MOL
REMARK 923 INTER-LIGAND FREE ENERGY PREDICTED BY IDOCK:   -5.65 KCAL/MOL
REMARK 924 INTRA-LIGAND FREE ENERGY PREDICTED BY IDOCK:    0.51 KCAL/MOL
REMARK 927      BINDING AFFINITY PREDICTED BY RF-SCORE:    0.00 PKD
ROOT
HETATM    1  C   UNL     1     -12.963  15.684  70.645  1.00  0.00    -0.290 C  
HETATM    2  N   UNL     1     -11.736  14.892  70.585  1.00  0.00    -0.286 NA 
HETATM    3  C   UNL     1     -11.798  13.719  71.486  1.00  0.00     0.518 C  
HETATM    4  C   UNL     1     -12.714  12.583  70.993  1.00  0.00    -0.225 C  
HETATM    5  N   UNL     1     -12.383  12.201  69.624  1.00  0.00    -0.084 N  
HETATM    6  C   UNL     1     -12.342  13.313  68.672  1.00  0.00     0.116 C  
HETATM    7  C   UNL     1     -11.844  10.954  69.374  1.00  0.00    -0.328 C  
HETATM    8  O   UNL     1     -11.588  10.139  70.249  1.00  0.00    -0.267 OA 
HETATM    9  C   UNL     1     -11.436  14.447  69.203  1.00  0.00    -0.294 C  
ENDROOT
BRANCH   7  10
HETATM   10  O   UNL     1     -11.663  10.727  68.051  1.00  0.00    -0.528 OA 
BRANCH  10  11
HETATM   11  C   UNL     1     -10.693  11.556  67.413  1.00  0.00    -0.232 C  
HETATM   12  N   UNL     1      -9.510  10.756  67.138  1.00  0.00    -0.159 N  
HETATM   13  C   UNL     1      -9.299  10.560  65.779  1.00  0.00    -0.188 C  
HETATM   14  C   UNL     1     -11.215  11.844  66.025  1.00  0.00    -0.324 A  
HETATM   15  N   UNL     1     -12.328  12.539  65.691  1.00  0.00    -0.638 NA 
HETATM   16  C   UNL     1     -10.401  11.242  65.087  1.00  0.00    -0.295 A  
HETATM   17  O   UNL     1      -8.369  10.006  65.223  1.00  0.00    -0.140 OA 
HETATM   18  C   UNL     1     -12.556  12.590  64.353  1.00  0.00    -0.410 A  
HETATM   19  N   UNL     1     -10.603  11.289  63.756  1.00  0.00    -0.380 NA 
HETATM   20  C   UNL     1     -11.715  11.985  63.414  1.00  0.00    -0.426 A  
BRANCH  12  21
HETATM   21  C   UNL     1      -8.573  10.497  68.143  1.00  0.00    -0.123 A  
HETATM   22 CL   UNL     1      -5.844   9.533  71.545  1.00  0.00    -0.071 Cl 
HETATM   23  C   UNL     1      -6.884  11.213  69.700  1.00  0.00    -0.117 A  
HETATM   24  C   UNL     1      -7.679   8.976  69.643  1.00  0.00    -0.075 A  
HETATM   25  N   UNL     1      -8.507   9.228  68.600  1.00  0.00    -0.122 NA 
HETATM   26  C   UNL     1      -7.768  11.508  68.660  1.00  0.00    -0.139 A  
HETATM   27  C   UNL     1      -6.857   9.927  70.220  1.00  0.00    -0.138 A  
ENDBRANCH  12  21
ENDBRANCH  10  11
ENDBRANCH   7  10
TORSDOF 3
ENDMDL
MODEL      132
REMARK 921   NORMALIZED FREE ENERGY PREDICTED BY IDOCK:   -3.63 KCAL/MOL
REMARK 922        TOTAL FREE ENERGY PREDICTED BY IDOCK:   -5.08 KCAL/MOL
REMARK 923 INTER-LIGAND FREE ENERGY PREDICTED BY IDOCK:   -6.06 KCAL/MOL
REMARK 924 INTRA-LIGAND FREE ENERGY PREDICTED BY IDOCK:    0.98 KCAL/MOL
REMARK 927      BINDING AFFINITY PREDICTED BY RF-SCORE:    0.00 PKD
ROOT
HETATM    1  C   UNL     1      -6.591  19.514  68.749  1.00  0.00    -0.295 C  
HETATM    2  N   UNL     1      -5.950  18.313  68.214  1.00  0.00    -0.174 NA 
HETATM    3  C   UNL     1      -6.025  17.183  69.168  1.00  0.00    -0.195 C  
HETATM    4  C   UNL     1      -7.421  16.545  69.293  1.00  0.00    -0.183 C  
HETATM    5  N   UNL     1      -7.951  16.186  67.982  1.00  0.00    -0.144 N  
HETATM    6  C   UNL     1      -7.941  17.273  67.000  1.00  0.00    -0.214 C  
HETATM    7  C   UNL     1      -8.120  14.855  67.655  1.00  0.00    -0.166 C  
HETATM    8  O   UNL     1      -7.818  13.931  68.396  1.00  0.00    -0.126 OA 
HETATM    9  C   UNL     1      -6.535  17.910  66.913  1.00  0.00    -0.176 C  
ENDROOT
BRANCH   7  10
HETATM   10  O   UNL     1      -8.688  14.692  66.436  1.00  0.00    -0.162 OA 
BRANCH  10  11
HETATM   11  C   UNL     1     -10.000  14.130  66.439  1.00  0.00    -0.293 C  
HETATM   12  N   UNL     1      -9.890  12.702  66.688  1.00  0.00    -0.238 N  
HETATM   13  C   UNL     1     -10.421  12.330  67.916  1.00  0.00    -0.213 C  
HETATM   14  C   UNL     1     -10.680  14.624  67.695  1.00  0.00    -0.271 A  
HETATM   15  N   UNL     1     -11.005  15.899  68.008  1.00  0.00    -0.326 NA 
HETATM   16  C   UNL     1     -10.902  13.564  68.551  1.00  0.00    -0.264 A  
HETATM   17  O   UNL     1     -10.550  11.214  68.386  1.00  0.00    -0.175 OA 
HETATM   18  C   UNL     1     -11.573  16.030  69.235  1.00  0.00    -0.331 A  
HETATM   19  N   UNL     1     -11.473  13.669  69.766  1.00  0.00    -0.226 NA 
HETATM   20  C   UNL     1     -11.803  14.945  70.087  1.00  0.00    -0.308 A  
BRANCH  12  21
HETATM   21  C   UNL     1      -9.555  11.820  65.656  1.00  0.00    -0.220 A  
HETATM   22 CL   UNL     1      -8.809   8.866  62.389  1.00  0.00    -0.187 Cl 
HETATM   23  C   UNL     1      -8.173  10.090  64.714  1.00  0.00    -0.155 A  
HETATM   24  C   UNL     1     -10.130  10.874  63.622  1.00  0.00    -0.355 A  
HETATM   25  N   UNL     1     -10.378  11.793  64.587  1.00  0.00    -0.275 NA 
HETATM   26  C   UNL     1      -8.438  10.993  65.746  1.00  0.00    -0.119 A  
HETATM   27  C   UNL     1      -9.051  10.010  63.643  1.00  0.00    -0.268 A  
ENDBRANCH  12  21
ENDBRANCH  10  11
ENDBRANCH   7  10
TORSDOF 3
ENDMDL
MODEL      133
REMARK 921   NORMALIZED FREE ENERGY PREDICTED BY IDOCK:   -3.62 KCAL/MOL
REMARK 922        TOTAL FREE ENERGY PREDICTED BY IDOCK:   -5.06 KCAL/MOL
REMARK 923 INTER-LIGAND FREE ENERGY PREDICTED BY IDOCK:   -4.06 KCAL/MOL
REMARK 924 INTRA-LIGAND FREE ENERGY PREDICTED BY IDOCK:   -1.01 KCAL/MOL
REMARK 927      BINDING AFFINITY PREDICTED BY RF-SCORE:    0.00 PKD
ROOT
HETATM    1  C   UNL     1      -8.827   3.494  66.998  1.00  0.00    -0.131 C  
HETATM    2  N   UNL     1      -9.053   4.656  66.140  1.00  0.00    -0.123 NA 
HETATM    3  C   UNL     1     -10.381   5.265  66.383  1.00  0.00    -0.268 C  
HETATM    4  C   UNL     1     -10.492   6.050  67.703  1.00  0.00    -0.235 C  
HETATM    5  N   UNL     1      -9.416   7.028  67.821  1.00  0.00    -0.124 N  
HETATM    6  C   UNL     1      -8.070   6.482  67.630  1.00  0.00    -0.118 C  
HETATM    7  C   UNL     1      -9.711   8.376  67.786  1.00  0.00    -0.162 C  
HETATM    8  O   UNL     1     -10.840   8.819  67.625  1.00  0.00    -0.190 OA 
HETATM    9  C   UNL     1      -7.994   5.680  66.310  1.00  0.00    -0.102 C  
ENDROOT
BRANCH   7  10
HETATM   10  O   UNL     1      -8.616   9.149  67.983  1.00  0.00    -0.124 OA 
BRANCH  10  11
HETATM   11  C   UNL     1      -8.751  10.165  68.975  1.00  0.00    -0.161 C  
HETATM   12  N   UNL     1      -7.798   9.902  70.040  1.00  0.00    -0.174 N  
HETATM   13  C   UNL     1      -6.795  10.861  70.112  1.00  0.00    -0.007 C  
HETATM   14  C   UNL     1      -8.211  11.439  68.368  1.00  0.00    -0.151 A  
HETATM   15  N   UNL     1      -8.706  12.122  67.309  1.00  0.00    -0.174 NA 
HETATM   16  C   UNL     1      -7.062  11.820  69.031  1.00  0.00    -0.100 A  
HETATM   17  O   UNL     1      -5.898  10.968  70.927  1.00  0.00    -0.290 OA 
HETATM   18  C   UNL     1      -7.970  13.213  66.973  1.00  0.00     0.015 A  
HETATM   19  N   UNL     1      -6.324  12.903  68.722  1.00  0.00    -0.074 NA 
HETATM   20  C   UNL     1      -6.814  13.592  67.662  1.00  0.00    -0.174 A  
BRANCH  12  21
HETATM   21  C   UNL     1      -8.073   8.952  71.028  1.00  0.00    -0.170 A  
HETATM   22 CL   UNL     1      -9.009   6.186  74.409  1.00  0.00    -0.137 Cl 
HETATM   23  C   UNL     1      -7.458   7.053  72.372  1.00  0.00    -0.085 A  
HETATM   24  C   UNL     1      -9.495   8.227  72.707  1.00  0.00    -0.273 A  
HETATM   25  N   UNL     1      -9.251   9.073  71.677  1.00  0.00    -0.340 NA 
HETATM   26  C   UNL     1      -7.162   7.947  71.340  1.00  0.00    -0.065 A  
HETATM   27  C   UNL     1      -8.636   7.212  73.087  1.00  0.00    -0.122 A  
ENDBRANCH  12  21
ENDBRANCH  10  11
ENDBRANCH   7  10
TORSDOF 3
ENDMDL
MODEL      134
REMARK 921   NORMALIZED FREE ENERGY PREDICTED BY IDOCK:   -3.59 KCAL/MOL
REMARK 922        TOTAL FREE ENERGY PREDICTED BY IDOCK:   -5.03 KCAL/MOL
REMARK 923 INTER-LIGAND FREE ENERGY PREDICTED BY IDOCK:   -5.55 KCAL/MOL
REMARK 924 INTRA-LIGAND FREE ENERGY PREDICTED BY IDOCK:    0.52 KCAL/MOL
REMARK 927      BINDING AFFINITY PREDICTED BY RF-SCORE:    0.00 PKD
ROOT
HETATM    1  C   UNL     1     -10.516  10.283  68.935  1.00  0.00    -0.211 C  
HETATM    2  N   UNL     1     -10.446  11.279  67.866  1.00  0.00    -0.182 NA 
HETATM    3  C   UNL     1     -11.694  12.071  67.777  1.00  0.00    -0.309 C  
HETATM    4  C   UNL     1     -11.878  13.101  68.907  1.00  0.00    -0.320 C  
HETATM    5  N   UNL     1     -10.701  13.953  69.036  1.00  0.00    -0.227 N  
HETATM    6  C   UNL     1      -9.434  13.229  69.167  1.00  0.00     0.560 C  
HETATM    7  C   UNL     1     -10.791  15.295  68.723  1.00  0.00    -0.254 C  
HETATM    8  O   UNL     1     -11.809  15.825  68.303  1.00  0.00    -0.301 OA 
HETATM    9  C   UNL     1      -9.287  12.187  68.035  1.00  0.00    -0.197 C  
ENDROOT
BRANCH   7  10
HETATM   10  O   UNL     1      -9.636  15.959  68.966  1.00  0.00    -0.217 OA 
BRANCH  10  11
HETATM   11  C   UNL     1      -8.540  15.614  68.120  1.00  0.00    -0.159 C  
HETATM   12  N   UNL     1      -8.771  16.190  66.805  1.00  0.00    -0.215 N  
HETATM   13  C   UNL     1      -7.864  17.196  66.494  1.00  0.00    -0.290 C  
HETATM   14  C   UNL     1      -7.348  16.402  68.611  1.00  0.00    -0.186 A  
HETATM   15  N   UNL     1      -6.724  16.293  69.807  1.00  0.00    -0.156 NA 
HETATM   16  C   UNL     1      -6.979  17.331  67.659  1.00  0.00    -0.154 A  
HETATM   17  O   UNL     1      -7.743  17.819  65.455  1.00  0.00    -0.486 OA 
HETATM   18  C   UNL     1      -5.704  17.175  69.971  1.00  0.00    -0.232 A  
HETATM   19  N   UNL     1      -5.965  18.206  67.796  1.00  0.00    -0.157 NA 
HETATM   20  C   UNL     1      -5.335  18.102  68.992  1.00  0.00    -0.192 A  
BRANCH  12  21
HETATM   21  C   UNL     1      -9.625  15.566  65.891  1.00  0.00    -0.348 A  
HETATM   22 CL   UNL     1     -12.625  13.692  63.164  1.00  0.00     0.070 Cl 
HETATM   23  C   UNL     1     -10.417  13.618  64.720  1.00  0.00    -0.436 A  
HETATM   24  C   UNL     1     -11.482  15.731  64.517  1.00  0.00    -0.289 A  
HETATM   25  N   UNL     1     -10.579  16.336  65.327  1.00  0.00    -0.581 NA 
HETATM   26  C   UNL     1      -9.507  14.210  65.600  1.00  0.00     0.008 A  
HETATM   27  C   UNL     1     -11.441  14.388  64.189  1.00  0.00    -0.088 A  
ENDBRANCH  12  21
ENDBRANCH  10  11
ENDBRANCH   7  10
TORSDOF 3
ENDMDL
MODEL      135
REMARK 921   NORMALIZED FREE ENERGY PREDICTED BY IDOCK:   -3.56 KCAL/MOL
REMARK 922        TOTAL FREE ENERGY PREDICTED BY IDOCK:   -5.00 KCAL/MOL
REMARK 923 INTER-LIGAND FREE ENERGY PREDICTED BY IDOCK:   -4.06 KCAL/MOL
REMARK 924 INTRA-LIGAND FREE ENERGY PREDICTED BY IDOCK:   -0.94 KCAL/MOL
REMARK 927      BINDING AFFINITY PREDICTED BY RF-SCORE:    0.00 PKD
ROOT
HETATM    1  C   UNL     1      -9.835   3.637  64.642  1.00  0.00    -0.181 C  
HETATM    2  N   UNL     1      -9.575   3.845  66.065  1.00  0.00    -0.187 NA 
HETATM    3  C   UNL     1      -8.166   4.231  66.312  1.00  0.00    -0.102 C  
HETATM    4  C   UNL     1      -7.818   5.673  65.900  1.00  0.00    -0.101 C  
HETATM    5  N   UNL     1      -8.753   6.626  66.489  1.00  0.00    -0.130 N  
HETATM    6  C   UNL     1     -10.166   6.323  66.248  1.00  0.00     0.087 C  
HETATM    7  C   UNL     1      -8.310   7.517  67.446  1.00  0.00    -0.112 C  
HETATM    8  O   UNL     1      -7.163   7.540  67.870  1.00  0.00    -0.085 OA 
HETATM    9  C   UNL     1     -10.482   4.863  66.648  1.00  0.00    -0.219 C  
ENDROOT
BRANCH   7  10
HETATM   10  O   UNL     1      -9.279   8.378  67.836  1.00  0.00    -0.136 OA 
BRANCH  10  11
HETATM   11  C   UNL     1      -9.222   8.790  69.201  1.00  0.00    -0.149 C  
HETATM   12  N   UNL     1      -9.597  10.192  69.278  1.00  0.00    -0.214 N  
HETATM   13  C   UNL     1     -10.804  10.389  69.936  1.00  0.00    -0.298 C  
HETATM   14  C   UNL     1     -10.372   8.111  69.907  1.00  0.00    -0.214 A  
HETATM   15  N   UNL     1     -10.551   6.783  70.102  1.00  0.00    -0.208 NA 
HETATM   16  C   UNL     1     -11.292   9.056  70.313  1.00  0.00    -0.178 A  
HETATM   17  O   UNL     1     -11.353  11.436  70.227  1.00  0.00    -0.223 OA 
HETATM   18  C   UNL     1     -11.712   6.479  70.738  1.00  0.00    -0.366 A  
HETATM   19  N   UNL     1     -12.444   8.777  70.953  1.00  0.00    -0.108 NA 
HETATM   20  C   UNL     1     -12.630   7.449  71.153  1.00  0.00    -0.293 A  
BRANCH  12  21
HETATM   21  C   UNL     1      -8.673  11.197  68.975  1.00  0.00    -0.017 A  
HETATM   22 CL   UNL     1      -5.696  14.470  68.355  1.00  0.00    -0.098 Cl 
HETATM   23  C   UNL     1      -8.053  13.241  67.866  1.00  0.00    -0.159 A  
HETATM   24  C   UNL     1      -6.602  12.146  69.394  1.00  0.00    -0.090 A  
HETATM   25  N   UNL     1      -7.475  11.128  69.593  1.00  0.00     0.014 NA 
HETATM   26  C   UNL     1      -8.989  12.230  68.096  1.00  0.00    -0.192 A  
HETATM   27  C   UNL     1      -6.846  13.213  68.548  1.00  0.00    -0.099 A  
ENDBRANCH  12  21
ENDBRANCH  10  11
ENDBRANCH   7  10
TORSDOF 3
ENDMDL
MODEL      136
REMARK 921   NORMALIZED FREE ENERGY PREDICTED BY IDOCK:   -3.56 KCAL/MOL
REMARK 922        TOTAL FREE ENERGY PREDICTED BY IDOCK:   -4.99 KCAL/MOL
REMARK 923 INTER-LIGAND FREE ENERGY PREDICTED BY IDOCK:   -4.24 KCAL/MOL
REMARK 924 INTRA-LIGAND FREE ENERGY PREDICTED BY IDOCK:   -0.75 KCAL/MOL
REMARK 927      BINDING AFFINITY PREDICTED BY RF-SCORE:    0.00 PKD
ROOT
HETATM    1  C   UNL     1     -12.521  15.960  69.419  1.00  0.00     0.227 C  
HETATM    2  N   UNL     1     -11.378  15.271  70.017  1.00  0.00    -0.267 NA 
HETATM    3  C   UNL     1     -11.802  14.086  70.797  1.00  0.00    -0.215 C  
HETATM    4  C   UNL     1     -12.248  12.885  69.942  1.00  0.00    -0.188 C  
HETATM    5  N   UNL     1     -11.237  12.548  68.945  1.00  0.00    -0.265 N  
HETATM    6  C   UNL     1     -10.800  13.671  68.112  1.00  0.00    -0.246 C  
HETATM    7  C   UNL     1     -10.553  11.352  69.044  1.00  0.00    -0.191 C  
HETATM    8  O   UNL     1     -10.718  10.550  69.953  1.00  0.00    -0.267 OA 
HETATM    9  C   UNL     1     -10.381  14.868  68.995  1.00  0.00    -0.245 C  
ENDROOT
BRANCH   7  10
HETATM   10  O   UNL     1      -9.705  11.156  68.006  1.00  0.00    -0.167 OA 
BRANCH  10  11
HETATM   11  C   UNL     1      -8.452  10.561  68.340  1.00  0.00    -0.128 C  
HETATM   12  N   UNL     1      -8.059   9.674  67.258  1.00  0.00    -0.110 N  
HETATM   13  C   UNL     1      -6.936  10.125  66.576  1.00  0.00    -0.102 C  
HETATM   14  C   UNL     1      -7.415  11.655  68.252  1.00  0.00    -0.097 A  
HETATM   15  N   UNL     1      -7.322  12.767  69.018  1.00  0.00    -0.008 NA 
HETATM   16  C   UNL     1      -6.550  11.394  67.208  1.00  0.00    -0.104 A  
HETATM   17  O   UNL     1      -6.318   9.582  65.678  1.00  0.00    -0.066 OA 
HETATM   18  C   UNL     1      -6.299  13.587  68.665  1.00  0.00    -0.091 A  
HETATM   19  N   UNL     1      -5.523  12.188  66.848  1.00  0.00    -0.312 NA 
HETATM   20  C   UNL     1      -5.424  13.303  67.612  1.00  0.00    -0.052 A  
BRANCH  12  21
HETATM   21  C   UNL     1      -8.600   8.388  67.154  1.00  0.00    -0.123 A  
HETATM   22 CL   UNL     1     -10.088   4.217  66.569  1.00  0.00    -0.218 Cl 
HETATM   23  C   UNL     1     -10.441   6.891  66.758  1.00  0.00    -0.300 A  
HETATM   24  C   UNL     1      -8.224   6.104  67.081  1.00  0.00    -0.106 A  
HETATM   25  N   UNL     1      -7.740   7.355  67.280  1.00  0.00    -0.114 NA 
HETATM   26  C   UNL     1      -9.956   8.192  66.908  1.00  0.00    -0.343 A  
HETATM   27  C   UNL     1      -9.553   5.827  66.819  1.00  0.00    -0.147 A  
ENDBRANCH  12  21
ENDBRANCH  10  11
ENDBRANCH   7  10
TORSDOF 3
ENDMDL
MODEL      137
REMARK 921   NORMALIZED FREE ENERGY PREDICTED BY IDOCK:   -3.54 KCAL/MOL
REMARK 922        TOTAL FREE ENERGY PREDICTED BY IDOCK:   -4.97 KCAL/MOL
REMARK 923 INTER-LIGAND FREE ENERGY PREDICTED BY IDOCK:   -4.00 KCAL/MOL
REMARK 924 INTRA-LIGAND FREE ENERGY PREDICTED BY IDOCK:   -0.97 KCAL/MOL
REMARK 927      BINDING AFFINITY PREDICTED BY RF-SCORE:    0.00 PKD
ROOT
HETATM    1  C   UNL     1      -6.906  14.770  69.418  1.00  0.00    -0.162 C  
HETATM    2  N   UNL     1      -5.926  13.757  69.026  1.00  0.00    -0.079 NA 
HETATM    3  C   UNL     1      -6.075  12.517  69.822  1.00  0.00    -0.134 C  
HETATM    4  C   UNL     1      -7.303  11.665  69.453  1.00  0.00     0.097 C  
HETATM    5  N   UNL     1      -7.344  11.399  68.020  1.00  0.00    -0.086 N  
HETATM    6  C   UNL     1      -7.240  12.590  67.173  1.00  0.00    -0.057 C  
HETATM    7  C   UNL     1      -7.162  10.109  67.559  1.00  0.00    -0.088 C  
HETATM    8  O   UNL     1      -6.930   9.156  68.288  1.00  0.00    -0.073 OA 
HETATM    9  C   UNL     1      -6.014  13.437  67.581  1.00  0.00    -0.104 C  
ENDROOT
BRANCH   7  10
HETATM   10  O   UNL     1      -7.301  10.018  66.215  1.00  0.00    -0.099 OA 
BRANCH  10  11
HETATM   11  C   UNL     1      -8.426   9.265  65.763  1.00  0.00    -0.135 C  
HETATM   12  N   UNL     1      -9.047   9.977  64.658  1.00  0.00    -0.217 N  
HETATM   13  C   UNL     1      -8.921   9.305  63.449  1.00  0.00    -0.039 C  
HETATM   14  C   UNL     1      -7.878   8.032  65.084  1.00  0.00    -0.116 A  
HETATM   15  N   UNL     1      -7.173   7.025  65.649  1.00  0.00    -0.071 NA 
HETATM   16  C   UNL     1      -8.160   8.081  63.734  1.00  0.00    -0.096 A  
HETATM   17  O   UNL     1      -9.387   9.595  62.363  1.00  0.00    -0.271 OA 
HETATM   18  C   UNL     1      -6.780   6.072  64.763  1.00  0.00    -0.046 A  
HETATM   19  N   UNL     1      -7.791   7.143  62.840  1.00  0.00    -0.122 NA 
HETATM   20  C   UNL     1      -7.084   6.130  63.399  1.00  0.00    -0.052 A  
BRANCH  12  21
HETATM   21  C   UNL     1      -9.908  11.053  64.894  1.00  0.00    -0.274 A  
HETATM   22 CL   UNL     1     -12.374  14.700  65.655  1.00  0.00    -0.217 Cl 
HETATM   23  C   UNL     1     -11.605  12.164  66.190  1.00  0.00    -0.418 A  
HETATM   24  C   UNL     1     -10.564  13.200  64.323  1.00  0.00    -0.412 A  
HETATM   25  N   UNL     1      -9.812  12.105  64.053  1.00  0.00    -0.235 NA 
HETATM   26  C   UNL     1     -10.802  11.044  65.962  1.00  0.00    -0.189 A  
HETATM   27  C   UNL     1     -11.465  13.275  65.370  1.00  0.00    -0.304 A  
ENDBRANCH  12  21
ENDBRANCH  10  11
ENDBRANCH   7  10
TORSDOF 3
ENDMDL
MODEL      138
REMARK 921   NORMALIZED FREE ENERGY PREDICTED BY IDOCK:   -3.48 KCAL/MOL
REMARK 922        TOTAL FREE ENERGY PREDICTED BY IDOCK:   -4.90 KCAL/MOL
REMARK 923 INTER-LIGAND FREE ENERGY PREDICTED BY IDOCK:   -5.61 KCAL/MOL
REMARK 924 INTRA-LIGAND FREE ENERGY PREDICTED BY IDOCK:    0.71 KCAL/MOL
REMARK 927      BINDING AFFINITY PREDICTED BY RF-SCORE:    0.00 PKD
ROOT
HETATM    1  C   UNL     1     -11.112   5.070  72.585  1.00  0.00    -0.197 C  
HETATM    2  N   UNL     1     -10.873   6.509  72.672  1.00  0.00    -0.236 NA 
HETATM    3  C   UNL     1      -9.499   6.861  72.246  1.00  0.00    -0.140 C  
HETATM    4  C   UNL     1      -9.261   6.778  70.727  1.00  0.00    -0.158 C  
HETATM    5  N   UNL     1     -10.268   7.540  69.997  1.00  0.00    -0.210 N  
HETATM    6  C   UNL     1     -11.653   7.212  70.344  1.00  0.00    -0.258 C  
HETATM    7  C   UNL     1      -9.897   8.675  69.304  1.00  0.00    -0.188 C  
HETATM    8  O   UNL     1      -8.757   9.117  69.289  1.00  0.00    -0.132 OA 
HETATM    9  C   UNL     1     -11.857   7.280  71.875  1.00  0.00    -0.297 C  
ENDROOT
BRANCH   7  10
HETATM   10  O   UNL     1     -10.931   9.223  68.622  1.00  0.00    -0.128 OA 
BRANCH  10  11
HETATM   11  C   UNL     1     -10.814   9.191  67.200  1.00  0.00    -0.024 C  
HETATM   12  N   UNL     1      -9.648   9.969  66.814  1.00  0.00    -0.174 N  
HETATM   13  C   UNL     1      -8.636   9.186  66.275  1.00  0.00    -0.126 C  
HETATM   14  C   UNL     1     -10.400   7.786  66.831  1.00  0.00    -0.326 A  
HETATM   15  N   UNL     1     -11.108   6.646  67.002  1.00  0.00    -0.403 NA 
HETATM   16  C   UNL     1      -9.122   7.800  66.310  1.00  0.00    -0.178 A  
HETATM   17  O   UNL     1      -7.574   9.536  65.793  1.00  0.00    -0.097 OA 
HETATM   18  C   UNL     1     -10.445   5.529  66.607  1.00  0.00    -0.294 A  
HETATM   19  N   UNL     1      -8.450   6.706  65.902  1.00  0.00    -0.140 NA 
HETATM   20  C   UNL     1      -9.154   5.560  66.069  1.00  0.00    -0.156 A  
BRANCH  12  21
HETATM   21  C   UNL     1      -9.711  11.364  66.741  1.00  0.00    -0.198 A  
HETATM   22 CL   UNL     1      -9.747  15.797  66.192  1.00  0.00    -0.321 Cl 
HETATM   23  C   UNL     1      -9.234  13.556  67.613  1.00  0.00    -0.214 A  
HETATM   24  C   UNL     1     -10.251  13.238  65.490  1.00  0.00    -0.290 A  
HETATM   25  N   UNL     1     -10.271  11.890  65.630  1.00  0.00    -0.236 NA 
HETATM   26  C   UNL     1      -9.197  12.167  67.755  1.00  0.00    -0.189 A  
HETATM   27  C   UNL     1      -9.747  14.102  66.446  1.00  0.00    -0.298 A  
ENDBRANCH  12  21
ENDBRANCH  10  11
ENDBRANCH   7  10
TORSDOF 3
ENDMDL
MODEL      139
REMARK 921   NORMALIZED FREE ENERGY PREDICTED BY IDOCK:   -3.44 KCAL/MOL
REMARK 922        TOTAL FREE ENERGY PREDICTED BY IDOCK:   -4.86 KCAL/MOL
REMARK 923 INTER-LIGAND FREE ENERGY PREDICTED BY IDOCK:   -6.07 KCAL/MOL
REMARK 924 INTRA-LIGAND FREE ENERGY PREDICTED BY IDOCK:    1.21 KCAL/MOL
REMARK 927      BINDING AFFINITY PREDICTED BY RF-SCORE:    0.00 PKD
ROOT
HETATM    1  C   UNL     1     -11.203  10.694  67.478  1.00  0.00    -0.253 C  
HETATM    2  N   UNL     1     -10.082  11.596  67.221  1.00  0.00    -0.198 NA 
HETATM    3  C   UNL     1     -10.378  12.534  66.114  1.00  0.00    -0.253 C  
HETATM    4  C   UNL     1     -11.370  13.655  66.475  1.00  0.00    -0.319 C  
HETATM    5  N   UNL     1     -10.951  14.356  67.684  1.00  0.00    -0.280 N  
HETATM    6  C   UNL     1     -10.678  13.487  68.831  1.00  0.00    -0.201 C  
HETATM    7  C   UNL     1     -10.545  15.674  67.604  1.00  0.00    -0.294 C  
HETATM    8  O   UNL     1     -10.481  16.300  66.555  1.00  0.00    -0.301 OA 
HETATM    9  C   UNL     1      -9.699  12.359  68.434  1.00  0.00    -0.189 C  
ENDROOT
BRANCH   7  10
HETATM   10  O   UNL     1     -10.260  16.200  68.818  1.00  0.00    -0.218 OA 
BRANCH  10  11
HETATM   11  C   UNL     1      -9.043  16.942  68.896  1.00  0.00    -0.223 C  
HETATM   12  N   UNL     1      -8.089  16.364  67.965  1.00  0.00    -0.155 N  
HETATM   13  C   UNL     1      -7.791  17.213  66.906  1.00  0.00    -0.215 C  
HETATM   14  C   UNL     1      -9.319  18.292  68.277  1.00  0.00    -0.308 A  
HETATM   15  N   UNL     1     -10.168  19.246  68.725  1.00  0.00    -0.376 NA 
HETATM   16  C   UNL     1      -8.595  18.426  67.110  1.00  0.00    -0.262 A  
HETATM   17  O   UNL     1      -6.984  17.059  66.008  1.00  0.00    -0.166 OA 
HETATM   18  C   UNL     1     -10.229  20.340  67.923  1.00  0.00    -0.304 A  
HETATM   19  N   UNL     1      -8.631  19.505  66.306  1.00  0.00    -0.357 NA 
HETATM   20  C   UNL     1      -9.479  20.466  66.749  1.00  0.00    -0.341 A  
BRANCH  12  21
HETATM   21  C   UNL     1      -7.366  15.215  68.302  1.00  0.00    -0.113 A  
HETATM   22 CL   UNL     1      -5.315  11.355  69.223  1.00  0.00    -0.044 Cl 
HETATM   23  C   UNL     1      -6.316  13.769  69.913  1.00  0.00    -0.100 A  
HETATM   24  C   UNL     1      -6.466  13.194  67.614  1.00  0.00    -0.163 A  
HETATM   25  N   UNL     1      -7.076  14.363  67.296  1.00  0.00    -0.169 NA 
HETATM   26  C   UNL     1      -6.990  14.956  69.617  1.00  0.00    -0.184 A  
HETATM   27  C   UNL     1      -6.073  12.858  68.896  1.00  0.00    -0.083 A  
ENDBRANCH  12  21
ENDBRANCH  10  11
ENDBRANCH   7  10
TORSDOF 3
ENDMDL
MODEL      140
REMARK 921   NORMALIZED FREE ENERGY PREDICTED BY IDOCK:   -3.43 KCAL/MOL
REMARK 922        TOTAL FREE ENERGY PREDICTED BY IDOCK:   -4.84 KCAL/MOL
REMARK 923 INTER-LIGAND FREE ENERGY PREDICTED BY IDOCK:   -3.86 KCAL/MOL
REMARK 924 INTRA-LIGAND FREE ENERGY PREDICTED BY IDOCK:   -0.99 KCAL/MOL
REMARK 927      BINDING AFFINITY PREDICTED BY RF-SCORE:    0.00 PKD
ROOT
HETATM    1  C   UNL     1      -9.780   1.666  70.964  1.00  0.00    -0.101 C  
HETATM    2  N   UNL     1      -8.579   2.373  70.522  1.00  0.00    -0.051 NA 
HETATM    3  C   UNL     1      -8.408   2.293  69.053  1.00  0.00    -0.052 C  
HETATM    4  C   UNL     1      -9.384   3.171  68.248  1.00  0.00    -0.187 C  
HETATM    5  N   UNL     1      -9.361   4.550  68.724  1.00  0.00    -0.135 N  
HETATM    6  C   UNL     1      -9.563   4.702  70.167  1.00  0.00    -0.196 C  
HETATM    7  C   UNL     1      -8.863   5.546  67.907  1.00  0.00    -0.105 C  
HETATM    8  O   UNL     1      -8.397   5.341  66.796  1.00  0.00    -0.108 OA 
HETATM    9  C   UNL     1      -8.588   3.793  70.948  1.00  0.00    -0.072 C  
ENDROOT
BRANCH   7  10
HETATM   10  O   UNL     1      -8.979   6.775  68.464  1.00  0.00    -0.123 OA 
BRANCH  10  11
HETATM   11  C   UNL     1      -7.818   7.599  68.382  1.00  0.00    -0.121 C  
HETATM   12  N   UNL     1      -8.234   8.955  68.066  1.00  0.00    -0.110 N  
HETATM   13  C   UNL     1      -8.007   9.843  69.109  1.00  0.00    -0.112 C  
HETATM   14  C   UNL     1      -7.289   7.746  69.790  1.00  0.00    -0.080 A  
HETATM   15  N   UNL     1      -6.793   6.773  70.589  1.00  0.00    -0.057 NA 
HETATM   16  C   UNL     1      -7.424   9.055  70.204  1.00  0.00    -0.072 A  
HETATM   17  O   UNL     1      -8.174  11.049  69.136  1.00  0.00    -0.131 OA 
HETATM   18  C   UNL     1      -6.436   7.212  71.824  1.00  0.00    -0.047 A  
HETATM   19  N   UNL     1      -7.067   9.515  71.418  1.00  0.00    -0.322 NA 
HETATM   20  C   UNL     1      -6.567   8.546  72.224  1.00  0.00    -0.084 A  
BRANCH  12  21
HETATM   21  C   UNL     1      -8.541   9.321  66.751  1.00  0.00    -0.127 A  
HETATM   22 CL   UNL     1      -9.237  10.701  62.560  1.00  0.00    -0.303 Cl 
HETATM   23  C   UNL     1     -10.035  10.233  65.100  1.00  0.00    -0.395 A  
HETATM   24  C   UNL     1      -7.800   9.621  64.577  1.00  0.00    -0.134 A  
HETATM   25  N   UNL     1      -7.559   9.178  65.835  1.00  0.00    -0.094 NA 
HETATM   26  C   UNL     1      -9.792   9.831  66.415  1.00  0.00    -0.298 A  
HETATM   27  C   UNL     1      -9.010  10.151  64.168  1.00  0.00    -0.238 A  
ENDBRANCH  12  21
ENDBRANCH  10  11
ENDBRANCH   7  10
TORSDOF 3
ENDMDL
MODEL      141
REMARK 921   NORMALIZED FREE ENERGY PREDICTED BY IDOCK:   -3.40 KCAL/MOL
REMARK 922        TOTAL FREE ENERGY PREDICTED BY IDOCK:   -4.81 KCAL/MOL
REMARK 923 INTER-LIGAND FREE ENERGY PREDICTED BY IDOCK:   -6.66 KCAL/MOL
REMARK 924 INTRA-LIGAND FREE ENERGY PREDICTED BY IDOCK:    1.85 KCAL/MOL
REMARK 927      BINDING AFFINITY PREDICTED BY RF-SCORE:    0.00 PKD
ROOT
HETATM    1  C   UNL     1     -12.699  13.310  65.538  1.00  0.00    -0.367 C  
HETATM    2  N   UNL     1     -11.258  13.334  65.785  1.00  0.00    -0.292 NA 
HETATM    3  C   UNL     1     -10.552  14.201  64.814  1.00  0.00    -0.418 C  
HETATM    4  C   UNL     1     -10.752  15.711  65.043  1.00  0.00    -0.436 C  
HETATM    5  N   UNL     1     -10.444  16.076  66.422  1.00  0.00    -0.307 N  
HETATM    6  C   UNL     1     -11.142  15.280  67.435  1.00  0.00    -0.326 C  
HETATM    7  C   UNL     1      -9.349  16.872  66.690  1.00  0.00    -0.258 C  
HETATM    8  O   UNL     1      -8.579  17.276  65.830  1.00  0.00    -0.532 OA 
HETATM    9  C   UNL     1     -10.944  13.771  67.167  1.00  0.00    -0.290 C  
ENDROOT
BRANCH   7  10
HETATM   10  O   UNL     1      -9.244  17.180  68.004  1.00  0.00    -0.239 OA 
BRANCH  10  11
HETATM   11  C   UNL     1      -7.919  17.415  68.477  1.00  0.00    -0.266 C  
HETATM   12  N   UNL     1      -7.026  16.458  67.846  1.00  0.00    -0.133 N  
HETATM   13  C   UNL     1      -6.132  17.056  66.967  1.00  0.00    -0.187 C  
HETATM   14  C   UNL     1      -7.468  18.723  67.870  1.00  0.00    -0.242 A  
HETATM   15  N   UNL     1      -7.984  19.955  68.089  1.00  0.00    -0.293 NA 
HETATM   16  C   UNL     1      -6.439  18.493  66.980  1.00  0.00    -0.183 A  
HETATM   17  O   UNL     1      -5.218  16.548  66.344  1.00  0.00    -0.293 OA 
HETATM   18  C   UNL     1      -7.388  20.933  67.359  1.00  0.00    -0.314 A  
HETATM   19  N   UNL     1      -5.826  19.448  66.254  1.00  0.00    -0.164 NA 
HETATM   20  C   UNL     1      -6.337  20.685  66.470  1.00  0.00    -0.237 A  
BRANCH  12  21
HETATM   21  C   UNL     1      -6.925  15.149  68.328  1.00  0.00    -0.114 A  
HETATM   22 CL   UNL     1      -6.256  11.023  69.906  1.00  0.00    -0.111 Cl 
HETATM   23  C   UNL     1      -7.215  12.772  68.082  1.00  0.00    -0.115 A  
HETATM   24  C   UNL     1      -6.139  13.721  69.974  1.00  0.00    -0.142 A  
HETATM   25  N   UNL     1      -6.340  14.988  69.534  1.00  0.00    -0.121 NA 
HETATM   26  C   UNL     1      -7.386  14.066  67.583  1.00  0.00    -0.188 A  
HETATM   27  C   UNL     1      -6.555  12.595  69.289  1.00  0.00    -0.092 A  
ENDBRANCH  12  21
ENDBRANCH  10  11
ENDBRANCH   7  10
TORSDOF 3
ENDMDL
MODEL      142
REMARK 921   NORMALIZED FREE ENERGY PREDICTED BY IDOCK:   -3.40 KCAL/MOL
REMARK 922        TOTAL FREE ENERGY PREDICTED BY IDOCK:   -4.80 KCAL/MOL
REMARK 923 INTER-LIGAND FREE ENERGY PREDICTED BY IDOCK:   -6.28 KCAL/MOL
REMARK 924 INTRA-LIGAND FREE ENERGY PREDICTED BY IDOCK:    1.48 KCAL/MOL
REMARK 927      BINDING AFFINITY PREDICTED BY RF-SCORE:    0.00 PKD
ROOT
HETATM    1  C   UNL     1      -5.158  12.060  69.412  1.00  0.00    -0.060 C  
HETATM    2  N   UNL     1      -6.435  12.741  69.620  1.00  0.00    -0.087 NA 
HETATM    3  C   UNL     1      -6.242  14.141  70.060  1.00  0.00    -0.151 C  
HETATM    4  C   UNL     1      -5.760  15.098  68.954  1.00  0.00    -0.094 C  
HETATM    5  N   UNL     1      -6.618  15.011  67.777  1.00  0.00    -0.157 N  
HETATM    6  C   UNL     1      -6.820  13.653  67.266  1.00  0.00     0.148 C  
HETATM    7  C   UNL     1      -7.403  16.090  67.423  1.00  0.00    -0.184 C  
HETATM    8  O   UNL     1      -7.454  17.130  68.065  1.00  0.00    -0.184 OA 
HETATM    9  C   UNL     1      -7.280  12.711  68.402  1.00  0.00    -0.111 C  
ENDROOT
BRANCH   7  10
HETATM   10  O   UNL     1      -8.082  15.878  66.271  1.00  0.00    -0.243 OA 
BRANCH  10  11
HETATM   11  C   UNL     1      -9.473  16.194  66.310  1.00  0.00    -0.316 C  
HETATM   12  N   UNL     1     -10.054  15.583  67.493  1.00  0.00    -0.239 N  
HETATM   13  C   UNL     1     -10.469  16.519  68.432  1.00  0.00    -0.307 C  
HETATM   14  C   UNL     1      -9.573  17.668  66.627  1.00  0.00    -0.295 A  
HETATM   15  N   UNL     1      -9.150  18.706  65.869  1.00  0.00    -0.419 NA 
HETATM   16  C   UNL     1     -10.139  17.837  67.875  1.00  0.00    -0.342 A  
HETATM   17  O   UNL     1     -11.054  16.337  69.484  1.00  0.00    -0.316 OA 
HETATM   18  C   UNL     1      -9.343  19.918  66.448  1.00  0.00    -0.397 A  
HETATM   19  N   UNL     1     -10.350  19.030  68.464  1.00  0.00    -0.334 NA 
HETATM   20  C   UNL     1      -9.929  20.075  67.708  1.00  0.00    -0.423 A  
BRANCH  12  21
HETATM   21  C   UNL     1     -10.400  14.228  67.502  1.00  0.00    -0.248 A  
HETATM   22 CL   UNL     1     -11.259   9.853  67.779  1.00  0.00    -0.202 Cl 
HETATM   23  C   UNL     1     -10.678  12.105  66.402  1.00  0.00    -0.292 A  
HETATM   24  C   UNL     1     -10.972  12.359  68.745  1.00  0.00    -0.246 A  
HETATM   25  N   UNL     1     -10.732  13.692  68.695  1.00  0.00    -0.253 NA 
HETATM   26  C   UNL     1     -10.377  13.468  66.335  1.00  0.00    -0.289 A  
HETATM   27  C   UNL     1     -10.955  11.534  67.635  1.00  0.00    -0.242 A  
ENDBRANCH  12  21
ENDBRANCH  10  11
ENDBRANCH   7  10
TORSDOF 3
ENDMDL
MODEL      143
REMARK 921   NORMALIZED FREE ENERGY PREDICTED BY IDOCK:   -3.38 KCAL/MOL
REMARK 922        TOTAL FREE ENERGY PREDICTED BY IDOCK:   -4.78 KCAL/MOL
REMARK 923 INTER-LIGAND FREE ENERGY PREDICTED BY IDOCK:   -3.72 KCAL/MOL
REMARK 924 INTRA-LIGAND FREE ENERGY PREDICTED BY IDOCK:   -1.06 KCAL/MOL
REMARK 927      BINDING AFFINITY PREDICTED BY RF-SCORE:    0.00 PKD
ROOT
HETATM    1  C   UNL     1      -7.202   9.748  63.609  1.00  0.00    -0.119 C  
HETATM    2  N   UNL     1      -7.864  10.346  64.768  1.00  0.00    -0.125 NA 
HETATM    3  C   UNL     1      -9.196   9.745  65.005  1.00  0.00    -0.249 C  
HETATM    4  C   UNL     1      -9.160   8.322  65.592  1.00  0.00    -0.065 C  
HETATM    5  N   UNL     1      -8.319   8.268  66.783  1.00  0.00    -0.106 N  
HETATM    6  C   UNL     1      -6.971   8.813  66.605  1.00  0.00    -0.080 C  
HETATM    7  C   UNL     1      -8.895   8.027  68.015  1.00  0.00    -0.128 C  
HETATM    8  O   UNL     1     -10.097   7.884  68.185  1.00  0.00    -0.178 OA 
HETATM    9  C   UNL     1      -7.037  10.231  65.993  1.00  0.00    -0.128 C  
ENDROOT
BRANCH   7  10
HETATM   10  O   UNL     1      -7.974   7.935  69.005  1.00  0.00    -0.117 OA 
BRANCH  10  11
HETATM   11  C   UNL     1      -8.301   8.620  70.213  1.00  0.00    -0.129 C  
HETATM   12  N   UNL     1      -7.939   7.773  71.337  1.00  0.00    -0.092 N  
HETATM   13  C   UNL     1      -6.886   8.290  72.081  1.00  0.00    -0.083 C  
HETATM   14  C   UNL     1      -7.321   9.762  70.342  1.00  0.00    -0.141 A  
HETATM   15  N   UNL     1      -7.194  10.836  69.528  1.00  0.00    -0.134 NA 
HETATM   16  C   UNL     1      -6.493   9.545  71.425  1.00  0.00     0.053 A  
HETATM   17  O   UNL     1      -6.400   7.866  73.113  1.00  0.00    -0.062 OA 
HETATM   18  C   UNL     1      -6.186  11.673  69.885  1.00  0.00    -0.144 A  
HETATM   19  N   UNL     1      -5.496  10.367  71.803  1.00  0.00    -0.295 NA 
HETATM   20  C   UNL     1      -5.364  11.446  70.992  1.00  0.00    -0.099 A  
BRANCH  12  21
HETATM   21  C   UNL     1      -8.775   6.730  71.746  1.00  0.00    -0.128 A  
HETATM   22 CL   UNL     1     -11.403   3.510  73.384  1.00  0.00    -0.269 Cl 
HETATM   23  C   UNL     1      -9.339   4.394  71.880  1.00  0.00    -0.190 A  
HETATM   24  C   UNL     1     -10.606   6.062  72.998  1.00  0.00    -0.240 A  
HETATM   25  N   UNL     1      -9.840   7.066  72.505  1.00  0.00    -0.153 NA 
HETATM   26  C   UNL     1      -8.504   5.408  71.403  1.00  0.00    -0.126 A  
HETATM   27  C   UNL     1     -10.396   4.725  72.715  1.00  0.00    -0.192 A  
ENDBRANCH  12  21
ENDBRANCH  10  11
ENDBRANCH   7  10
TORSDOF 3
ENDMDL
MODEL      144
REMARK 921   NORMALIZED FREE ENERGY PREDICTED BY IDOCK:   -3.38 KCAL/MOL
REMARK 922        TOTAL FREE ENERGY PREDICTED BY IDOCK:   -4.78 KCAL/MOL
REMARK 923 INTER-LIGAND FREE ENERGY PREDICTED BY IDOCK:   -4.23 KCAL/MOL
REMARK 924 INTRA-LIGAND FREE ENERGY PREDICTED BY IDOCK:   -0.54 KCAL/MOL
REMARK 927      BINDING AFFINITY PREDICTED BY RF-SCORE:    0.00 PKD
ROOT
HETATM    1  C   UNL     1     -11.488   6.550  72.818  1.00  0.00    -0.130 C  
HETATM    2  N   UNL     1     -12.091   7.334  71.741  1.00  0.00    -0.305 NA 
HETATM    3  C   UNL     1     -11.795   8.777  71.884  1.00  0.00    -0.367 C  
HETATM    4  C   UNL     1     -10.346   9.169  71.538  1.00  0.00    -0.344 C  
HETATM    5  N   UNL     1      -9.967   8.663  70.223  1.00  0.00    -0.182 N  
HETATM    6  C   UNL     1     -10.200   7.230  70.028  1.00  0.00    -0.201 C  
HETATM    7  C   UNL     1      -9.732   9.550  69.191  1.00  0.00    -0.178 C  
HETATM    8  O   UNL     1      -9.854  10.762  69.300  1.00  0.00    -0.205 OA 
HETATM    9  C   UNL     1     -11.653   6.862  70.405  1.00  0.00    -0.335 C  
ENDROOT
BRANCH   7  10
HETATM   10  O   UNL     1      -9.320   8.929  68.061  1.00  0.00    -0.141 OA 
BRANCH  10  11
HETATM   11  C   UNL     1      -7.980   8.438  68.082  1.00  0.00    -0.119 C  
HETATM   12  N   UNL     1      -7.862   7.373  67.100  1.00  0.00    -0.114 N  
HETATM   13  C   UNL     1      -7.039   7.716  66.034  1.00  0.00    -0.069 C  
HETATM   14  C   UNL     1      -7.111   9.522  67.488  1.00  0.00    -0.085 A  
HETATM   15  N   UNL     1      -6.882  10.760  67.986  1.00  0.00    -0.067 NA 
HETATM   16  C   UNL     1      -6.586   9.091  66.287  1.00  0.00    -0.066 A  
HETATM   17  O   UNL     1      -6.680   7.030  65.095  1.00  0.00    -0.045 OA 
HETATM   18  C   UNL     1      -6.085  11.524  67.196  1.00  0.00    -0.115 A  
HETATM   19  N   UNL     1      -5.785   9.828  65.494  1.00  0.00    -0.055 NA 
HETATM   20  C   UNL     1      -5.550  11.069  65.986  1.00  0.00    -0.143 A  
BRANCH  12  21
HETATM   21  C   UNL     1      -8.302   6.078  67.391  1.00  0.00    -0.105 A  
HETATM   22 CL   UNL     1      -9.399   1.823  68.195  1.00  0.00    -0.229 Cl 
HETATM   23  C   UNL     1      -9.880   4.276  67.165  1.00  0.00    -0.205 A  
HETATM   24  C   UNL     1      -7.848   4.028  68.368  1.00  0.00    -0.069 A  
HETATM   25  N   UNL     1      -7.491   5.319  68.158  1.00  0.00    -0.075 NA 
HETATM   26  C   UNL     1      -9.507   5.594  66.891  1.00  0.00    -0.142 A  
HETATM   27  C   UNL     1      -9.021   3.468  67.896  1.00  0.00    -0.139 A  
ENDBRANCH  12  21
ENDBRANCH  10  11
ENDBRANCH   7  10
TORSDOF 3
ENDMDL
MODEL      145
REMARK 921   NORMALIZED FREE ENERGY PREDICTED BY IDOCK:   -3.35 KCAL/MOL
REMARK 922        TOTAL FREE ENERGY PREDICTED BY IDOCK:   -4.74 KCAL/MOL
REMARK 923 INTER-LIGAND FREE ENERGY PREDICTED BY IDOCK:   -4.15 KCAL/MOL
REMARK 924 INTRA-LIGAND FREE ENERGY PREDICTED BY IDOCK:   -0.59 KCAL/MOL
REMARK 927      BINDING AFFINITY PREDICTED BY RF-SCORE:    0.00 PKD
ROOT
HETATM    1  C   UNL     1      -8.101  16.395  67.552  1.00  0.00    -0.148 C  
HETATM    2  N   UNL     1      -7.787  15.224  68.369  1.00  0.00    -0.118 NA 
HETATM    3  C   UNL     1      -8.941  14.815  69.203  1.00  0.00    -0.078 C  
HETATM    4  C   UNL     1     -10.081  14.133  68.424  1.00  0.00    -0.238 C  
HETATM    5  N   UNL     1      -9.575  13.028  67.617  1.00  0.00    -0.200 N  
HETATM    6  C   UNL     1      -8.455  13.376  66.739  1.00  0.00     0.040 C  
HETATM    7  C   UNL     1      -9.932  11.732  67.932  1.00  0.00    -0.181 C  
HETATM    8  O   UNL     1     -10.635  11.436  68.888  1.00  0.00    -0.197 OA 
HETATM    9  C   UNL     1      -7.337  14.079  67.541  1.00  0.00    -0.170 C  
ENDROOT
BRANCH   7  10
HETATM   10  O   UNL     1      -9.442  10.833  67.046  1.00  0.00    -0.162 OA 
BRANCH  10  11
HETATM   11  C   UNL     1      -8.288  10.112  67.476  1.00  0.00    -0.118 C  
HETATM   12  N   UNL     1      -8.691   8.761  67.829  1.00  0.00    -0.135 N  
HETATM   13  C   UNL     1      -8.176   7.805  66.963  1.00  0.00    -0.117 C  
HETATM   14  C   UNL     1      -7.437   9.884  66.249  1.00  0.00    -0.102 A  
HETATM   15  N   UNL     1      -6.821  10.818  65.488  1.00  0.00    -0.047 NA 
HETATM   16  C   UNL     1      -7.397   8.536  65.954  1.00  0.00    -0.077 A  
HETATM   17  O   UNL     1      -8.266   6.592  67.024  1.00  0.00    -0.111 OA 
HETATM   18  C   UNL     1      -6.160  10.300  64.420  1.00  0.00    -0.123 A  
HETATM   19  N   UNL     1      -6.740   8.000  64.908  1.00  0.00    -0.051 NA 
HETATM   20  C   UNL     1      -6.119   8.931  64.141  1.00  0.00    -0.071 A  
BRANCH  12  21
HETATM   21  C   UNL     1      -9.277   8.490  69.069  1.00  0.00    -0.146 A  
HETATM   22 CL   UNL     1     -11.449   7.770  72.906  1.00  0.00    -0.416 Cl 
HETATM   23  C   UNL     1      -9.359   8.700  71.465  1.00  0.00    -0.319 A  
HETATM   24  C   UNL     1     -11.068   7.599  70.237  1.00  0.00    -0.244 A  
HETATM   25  N   UNL     1     -10.429   7.785  69.056  1.00  0.00    -0.217 NA 
HETATM   26  C   UNL     1      -8.709   8.949  70.254  1.00  0.00    -0.183 A  
HETATM   27  C   UNL     1     -10.577   8.035  71.454  1.00  0.00    -0.216 A  
ENDBRANCH  12  21
ENDBRANCH  10  11
ENDBRANCH   7  10
TORSDOF 3
ENDMDL
MODEL      146
REMARK 921   NORMALIZED FREE ENERGY PREDICTED BY IDOCK:   -3.33 KCAL/MOL
REMARK 922        TOTAL FREE ENERGY PREDICTED BY IDOCK:   -4.73 KCAL/MOL
REMARK 923 INTER-LIGAND FREE ENERGY PREDICTED BY IDOCK:   -4.73 KCAL/MOL
REMARK 924 INTRA-LIGAND FREE ENERGY PREDICTED BY IDOCK:    0.01 KCAL/MOL
REMARK 927      BINDING AFFINITY PREDICTED BY RF-SCORE:    0.00 PKD
ROOT
HETATM    1  C   UNL     1     -10.842   7.233  73.437  1.00  0.00    -0.324 C  
HETATM    2  N   UNL     1      -9.778   7.209  72.433  1.00  0.00    -0.149 NA 
HETATM    3  C   UNL     1     -10.249   6.633  71.153  1.00  0.00    -0.194 C  
HETATM    4  C   UNL     1     -11.177   7.556  70.341  1.00  0.00    -0.253 C  
HETATM    5  N   UNL     1     -10.576   8.873  70.158  1.00  0.00    -0.216 N  
HETATM    6  C   UNL     1     -10.122   9.515  71.393  1.00  0.00    -0.047 C  
HETATM    7  C   UNL     1     -10.194   9.279  68.894  1.00  0.00    -0.202 C  
HETATM    8  O   UNL     1     -10.298   8.579  67.897  1.00  0.00    -0.211 OA 
HETATM    9  C   UNL     1      -9.213   8.559  72.198  1.00  0.00    -0.266 C  
ENDROOT
BRANCH   7  10
HETATM   10  O   UNL     1      -9.723  10.549  68.882  1.00  0.00    -0.181 OA 
BRANCH  10  11
HETATM   11  C   UNL     1      -8.623  10.787  68.005  1.00  0.00    -0.128 C  
HETATM   12  N   UNL     1      -8.263  12.193  68.086  1.00  0.00    -0.156 N  
HETATM   13  C   UNL     1      -7.017  12.395  68.666  1.00  0.00    -0.091 C  
HETATM   14  C   UNL     1      -7.421  10.112  68.623  1.00  0.00    -0.084 A  
HETATM   15  N   UNL     1      -7.235   8.787  68.827  1.00  0.00    -0.074 NA 
HETATM   16  C   UNL     1      -6.504  11.064  69.018  1.00  0.00    -0.056 A  
HETATM   17  O   UNL     1      -6.402  13.436  68.811  1.00  0.00    -0.082 OA 
HETATM   18  C   UNL     1      -6.063   8.491  69.446  1.00  0.00    -0.037 A  
HETATM   19  N   UNL     1      -5.332  10.793  69.623  1.00  0.00    -0.038 NA 
HETATM   20  C   UNL     1      -5.138   9.467  69.830  1.00  0.00    -0.034 A  
BRANCH  12  21
HETATM   21  C   UNL     1      -8.987  13.159  67.380  1.00  0.00    -0.201 A  
HETATM   22 CL   UNL     1     -11.204  16.079  64.828  1.00  0.00    -0.414 Cl 
HETATM   23  C   UNL     1      -9.446  15.444  66.780  1.00  0.00    -0.260 A  
HETATM   24  C   UNL     1     -10.564  13.621  65.748  1.00  0.00    -0.285 A  
HETATM   25  N   UNL     1      -9.922  12.708  66.517  1.00  0.00    -0.245 NA 
HETATM   26  C   UNL     1      -8.734  14.518  67.546  1.00  0.00    -0.195 A  
HETATM   27  C   UNL     1     -10.360  14.985  65.843  1.00  0.00    -0.313 A  
ENDBRANCH  12  21
ENDBRANCH  10  11
ENDBRANCH   7  10
TORSDOF 3
ENDMDL
MODEL      147
REMARK 921   NORMALIZED FREE ENERGY PREDICTED BY IDOCK:   -3.33 KCAL/MOL
REMARK 922        TOTAL FREE ENERGY PREDICTED BY IDOCK:   -4.72 KCAL/MOL
REMARK 923 INTER-LIGAND FREE ENERGY PREDICTED BY IDOCK:   -4.86 KCAL/MOL
REMARK 924 INTRA-LIGAND FREE ENERGY PREDICTED BY IDOCK:    0.14 KCAL/MOL
REMARK 927      BINDING AFFINITY PREDICTED BY RF-SCORE:    0.00 PKD
ROOT
HETATM    1  C   UNL     1      -5.590   8.209  71.960  1.00  0.00    -0.037 C  
HETATM    2  N   UNL     1      -6.312   7.770  70.767  1.00  0.00    -0.037 NA 
HETATM    3  C   UNL     1      -7.575   7.081  71.116  1.00  0.00    -0.086 C  
HETATM    4  C   UNL     1      -8.695   8.013  71.613  1.00  0.00    -0.132 C  
HETATM    5  N   UNL     1      -8.915   9.112  70.678  1.00  0.00    -0.226 N  
HETATM    6  C   UNL     1      -7.708   9.861  70.320  1.00  0.00    -0.142 C  
HETATM    7  C   UNL     1     -10.101   9.183  69.975  1.00  0.00    -0.206 C  
HETATM    8  O   UNL     1     -10.991   8.348  70.061  1.00  0.00    -0.244 OA 
HETATM    9  C   UNL     1      -6.595   8.898  69.848  1.00  0.00    -0.042 C  
ENDROOT
BRANCH   7  10
HETATM   10  O   UNL     1     -10.179  10.297  69.208  1.00  0.00    -0.201 OA 
BRANCH  10  11
HETATM   11  C   UNL     1      -9.248  10.366  68.129  1.00  0.00    -0.145 C  
HETATM   12  N   UNL     1      -9.805   9.654  66.991  1.00  0.00    -0.183 N  
HETATM   13  C   UNL     1     -10.117  10.498  65.932  1.00  0.00    -0.260 C  
HETATM   14  C   UNL     1      -9.250  11.797  67.646  1.00  0.00    -0.180 A  
HETATM   15  N   UNL     1      -8.854  12.898  68.327  1.00  0.00    -0.186 NA 
HETATM   16  C   UNL     1      -9.775  11.857  66.371  1.00  0.00    -0.221 A  
HETATM   17  O   UNL     1     -10.525  10.210  64.822  1.00  0.00    -0.117 OA 
HETATM   18  C   UNL     1      -9.017  14.054  67.635  1.00  0.00    -0.194 A  
HETATM   19  N   UNL     1      -9.936  12.991  65.663  1.00  0.00    -0.261 NA 
HETATM   20  C   UNL     1      -9.540  14.098  66.339  1.00  0.00    -0.293 A  
BRANCH  12  21
HETATM   21  C   UNL     1      -9.734   8.260  66.914  1.00  0.00    -0.225 A  
HETATM   22 CL   UNL     1      -9.699   3.793  66.966  1.00  0.00    -0.212 Cl 
HETATM   23  C   UNL     1      -8.486   6.204  66.818  1.00  0.00    -0.111 A  
HETATM   24  C   UNL     1     -10.856   6.234  66.971  1.00  0.00    -0.383 A  
HETATM   25  N   UNL     1     -10.905   7.589  66.941  1.00  0.00    -0.263 NA 
HETATM   26  C   UNL     1      -8.510   7.601  66.839  1.00  0.00    -0.126 A  
HETATM   27  C   UNL     1      -9.682   5.507  66.913  1.00  0.00    -0.150 A  
ENDBRANCH  12  21
ENDBRANCH  10  11
ENDBRANCH   7  10
TORSDOF 3
ENDMDL
MODEL      148
REMARK 921   NORMALIZED FREE ENERGY PREDICTED BY IDOCK:   -3.33 KCAL/MOL
REMARK 922        TOTAL FREE ENERGY PREDICTED BY IDOCK:   -4.72 KCAL/MOL
REMARK 923 INTER-LIGAND FREE ENERGY PREDICTED BY IDOCK:   -4.49 KCAL/MOL
REMARK 924 INTRA-LIGAND FREE ENERGY PREDICTED BY IDOCK:   -0.23 KCAL/MOL
REMARK 927      BINDING AFFINITY PREDICTED BY RF-SCORE:    0.00 PKD
ROOT
HETATM    1  C   UNL     1      -7.702   8.405  70.630  1.00  0.00    -0.083 C  
HETATM    2  N   UNL     1      -7.901   8.655  69.203  1.00  0.00    -0.097 NA 
HETATM    3  C   UNL     1      -9.223   8.170  68.744  1.00  0.00    -0.144 C  
HETATM    4  C   UNL     1     -10.413   9.034  69.198  1.00  0.00    -0.225 C  
HETATM    5  N   UNL     1     -10.201  10.437  68.859  1.00  0.00    -0.193 N  
HETATM    6  C   UNL     1      -8.925  10.991  69.320  1.00  0.00     0.102 C  
HETATM    7  C   UNL     1     -11.003  11.040  67.911  1.00  0.00    -0.264 C  
HETATM    8  O   UNL     1     -11.882  10.454  67.295  1.00  0.00     0.106 OA 
HETATM    9  C   UNL     1      -7.752  10.092  68.871  1.00  0.00    -0.093 C  
ENDROOT
BRANCH   7  10
HETATM   10  O   UNL     1     -10.728  12.359  67.765  1.00  0.00    -0.213 OA 
BRANCH  10  11
HETATM   11  C   UNL     1     -11.831  13.178  67.382  1.00  0.00    -0.361 C  
HETATM   12  N   UNL     1     -11.541  14.551  67.763  1.00  0.00    -0.348 N  
HETATM   13  C   UNL     1     -11.366  15.386  66.667  1.00  0.00    -0.103 C  
HETATM   14  C   UNL     1     -11.813  13.252  65.873  1.00  0.00    -0.393 A  
HETATM   15  N   UNL     1     -11.999  12.239  64.996  1.00  0.00    -0.378 NA 
HETATM   16  C   UNL     1     -11.523  14.541  65.475  1.00  0.00    -0.343 A  
HETATM   17  O   UNL     1     -11.186  16.589  66.645  1.00  0.00     0.106 OA 
HETATM   18  C   UNL     1     -11.880  12.615  63.697  1.00  0.00    -0.530 A  
HETATM   19  N   UNL     1     -11.412  14.939  64.192  1.00  0.00    -0.090 NA 
HETATM   20  C   UNL     1     -11.598  13.929  63.308  1.00  0.00     0.763 A  
BRANCH  12  21
HETATM   21  C   UNL     1     -11.726  14.982  69.080  1.00  0.00    -0.319 A  
HETATM   22 CL   UNL     1     -12.591  16.550  73.173  1.00  0.00    -0.341 Cl 
HETATM   23  C   UNL     1     -10.944  16.053  71.088  1.00  0.00    -0.026 A  
HETATM   24  C   UNL     1     -13.185  15.304  70.851  1.00  0.00    -0.450 A  
HETATM   25  N   UNL     1     -12.953  14.802  69.613  1.00  0.00     0.210 NA 
HETATM   26  C   UNL     1     -10.697  15.590  69.794  1.00  0.00    -0.301 A  
HETATM   27  C   UNL     1     -12.220  15.931  71.618  1.00  0.00    -0.479 A  
ENDBRANCH  12  21
ENDBRANCH  10  11
ENDBRANCH   7  10
TORSDOF 3
ENDMDL
MODEL      149
REMARK 921   NORMALIZED FREE ENERGY PREDICTED BY IDOCK:   -3.32 KCAL/MOL
REMARK 922        TOTAL FREE ENERGY PREDICTED BY IDOCK:   -4.72 KCAL/MOL
REMARK 923 INTER-LIGAND FREE ENERGY PREDICTED BY IDOCK:   -4.41 KCAL/MOL
REMARK 924 INTRA-LIGAND FREE ENERGY PREDICTED BY IDOCK:   -0.30 KCAL/MOL
REMARK 927      BINDING AFFINITY PREDICTED BY RF-SCORE:    0.00 PKD
ROOT
HETATM    1  C   UNL     1     -11.631  13.458  63.114  1.00  0.00     0.361 C  
HETATM    2  N   UNL     1     -12.611  12.659  63.849  1.00  0.00    -0.697 NA 
HETATM    3  C   UNL     1     -12.027  11.387  64.330  1.00  0.00     0.271 C  
HETATM    4  C   UNL     1     -11.060  11.537  65.519  1.00  0.00    -0.191 C  
HETATM    5  N   UNL     1     -11.675  12.297  66.601  1.00  0.00    -0.374 N  
HETATM    6  C   UNL     1     -12.240  13.588  66.198  1.00  0.00    -0.433 C  
HETATM    7  C   UNL     1     -11.966  11.670  67.797  1.00  0.00    -0.047 C  
HETATM    8  O   UNL     1     -11.767  10.482  68.004  1.00  0.00    -0.450 OA 
HETATM    9  C   UNL     1     -13.187  13.410  64.990  1.00  0.00     0.239 C  
ENDROOT
BRANCH   7  10
HETATM   10  O   UNL     1     -12.464  12.527  68.720  1.00  0.00     0.144 OA 
BRANCH  10  11
HETATM   11  C   UNL     1     -11.607  12.804  69.827  1.00  0.00    -0.218 C  
HETATM   12  N   UNL     1     -10.594  13.755  69.402  1.00  0.00     0.003 N  
HETATM   13  C   UNL     1     -10.728  14.993  70.019  1.00  0.00    -0.192 C  
HETATM   14  C   UNL     1     -12.418  13.615  70.811  1.00  0.00    -0.359 A  
HETATM   15  N   UNL     1     -13.516  13.221  71.497  1.00  0.00    -0.252 NA 
HETATM   16  C   UNL     1     -11.902  14.892  70.897  1.00  0.00    -0.321 A  
HETATM   17  O   UNL     1     -10.006  15.969  69.936  1.00  0.00    -0.229 OA 
HETATM   18  C   UNL     1     -14.049  14.196  72.277  1.00  0.00    -0.533 A  
HETATM   19  N   UNL     1     -12.409  15.871  71.671  1.00  0.00    -0.450 NA 
HETATM   20  C   UNL     1     -13.509  15.483  72.362  1.00  0.00    -0.509 A  
BRANCH  12  21
HETATM   21  C   UNL     1      -9.471  13.332  68.686  1.00  0.00    -0.016 A  
HETATM   22 CL   UNL     1      -5.718  11.930  66.708  1.00  0.00    -0.122 Cl 
HETATM   23  C   UNL     1      -7.739  13.692  67.053  1.00  0.00     0.159 A  
HETATM   24  C   UNL     1      -7.815  11.737  68.400  1.00  0.00    -0.141 A  
HETATM   25  N   UNL     1      -8.963  12.123  69.009  1.00  0.00     0.277 NA 
HETATM   26  C   UNL     1      -8.893  14.134  67.705  1.00  0.00    -0.185 A  
HETATM   27  C   UNL     1      -7.174  12.481  67.427  1.00  0.00    -0.146 A  
ENDBRANCH  12  21
ENDBRANCH  10  11
ENDBRANCH   7  10
TORSDOF 3
ENDMDL
MODEL      150
REMARK 921   NORMALIZED FREE ENERGY PREDICTED BY IDOCK:   -3.31 KCAL/MOL
REMARK 922        TOTAL FREE ENERGY PREDICTED BY IDOCK:   -4.69 KCAL/MOL
REMARK 923 INTER-LIGAND FREE ENERGY PREDICTED BY IDOCK:   -6.51 KCAL/MOL
REMARK 924 INTRA-LIGAND FREE ENERGY PREDICTED BY IDOCK:    1.82 KCAL/MOL
REMARK 927      BINDING AFFINITY PREDICTED BY RF-SCORE:    0.00 PKD
ROOT
HETATM    1  C   UNL     1      -6.215  18.124  66.349  1.00  0.00    -0.191 C  
HETATM    2  N   UNL     1      -6.969  18.022  67.597  1.00  0.00    -0.197 NA 
HETATM    3  C   UNL     1      -8.381  18.431  67.416  1.00  0.00    -0.252 C  
HETATM    4  C   UNL     1      -9.248  17.412  66.654  1.00  0.00    -0.261 C  
HETATM    5  N   UNL     1      -9.138  16.084  67.247  1.00  0.00    -0.202 N  
HETATM    6  C   UNL     1      -7.765  15.603  67.418  1.00  0.00    -0.187 C  
HETATM    7  C   UNL     1     -10.234  15.522  67.872  1.00  0.00    -0.238 C  
HETATM    8  O   UNL     1     -11.310  16.091  67.994  1.00  0.00    -0.340 OA 
HETATM    9  C   UNL     1      -6.913  16.654  68.165  1.00  0.00    -0.152 C  
ENDROOT
BRANCH   7  10
HETATM   10  O   UNL     1      -9.991  14.261  68.303  1.00  0.00    -0.225 OA 
BRANCH  10  11
HETATM   11  C   UNL     1      -9.681  13.313  67.284  1.00  0.00    -0.231 C  
HETATM   12  N   UNL     1     -10.077  11.992  67.745  1.00  0.00    -0.190 N  
HETATM   13  C   UNL     1     -11.137  11.466  67.018  1.00  0.00    -0.303 C  
HETATM   14  C   UNL     1     -10.649  13.561  66.151  1.00  0.00    -0.290 A  
HETATM   15  N   UNL     1     -10.745  14.667  65.376  1.00  0.00    -0.343 NA 
HETATM   16  C   UNL     1     -11.501  12.483  66.022  1.00  0.00    -0.377 A  
HETATM   17  O   UNL     1     -11.651  10.366  67.104  1.00  0.00    -0.166 OA 
HETATM   18  C   UNL     1     -11.749  14.607  64.464  1.00  0.00    -0.401 A  
HETATM   19  N   UNL     1     -12.496  12.398  65.118  1.00  0.00    -0.601 NA 
HETATM   20  C   UNL     1     -12.597  13.502  64.338  1.00  0.00    -0.174 A  
BRANCH  12  21
HETATM   21  C   UNL     1      -9.262  11.265  68.618  1.00  0.00    -0.161 A  
HETATM   22 CL   UNL     1      -6.453   8.865  71.129  1.00  0.00    -0.060 Cl 
HETATM   23  C   UNL     1      -8.919   9.516  70.234  1.00  0.00    -0.288 A  
HETATM   24  C   UNL     1      -7.123  10.820  69.390  1.00  0.00    -0.122 A  
HETATM   25  N   UNL     1      -7.949  11.579  68.628  1.00  0.00    -0.145 NA 
HETATM   26  C   UNL     1      -9.781  10.250  69.417  1.00  0.00    -0.242 A  
HETATM   27  C   UNL     1      -7.559   9.788  70.200  1.00  0.00    -0.171 A  
ENDBRANCH  12  21
ENDBRANCH  10  11
ENDBRANCH   7  10
TORSDOF 3
ENDMDL
MODEL      151
REMARK 921   NORMALIZED FREE ENERGY PREDICTED BY IDOCK:   -3.15 KCAL/MOL
REMARK 922        TOTAL FREE ENERGY PREDICTED BY IDOCK:   -4.51 KCAL/MOL
REMARK 923 INTER-LIGAND FREE ENERGY PREDICTED BY IDOCK:   -6.43 KCAL/MOL
REMARK 924 INTRA-LIGAND FREE ENERGY PREDICTED BY IDOCK:    1.92 KCAL/MOL
REMARK 927      BINDING AFFINITY PREDICTED BY RF-SCORE:    0.00 PKD
ROOT
HETATM    1  C   UNL     1     -11.392  15.069  65.336  1.00  0.00    -0.328 C  
HETATM    2  N   UNL     1     -11.739  13.836  66.040  1.00  0.00    -0.347 NA 
HETATM    3  C   UNL     1     -11.928  12.706  65.101  1.00  0.00    -0.428 C  
HETATM    4  C   UNL     1     -10.624  12.152  64.498  1.00  0.00    -0.310 C  
HETATM    5  N   UNL     1      -9.658  11.835  65.543  1.00  0.00    -0.224 N  
HETATM    6  C   UNL     1      -9.395  12.925  66.485  1.00  0.00    -0.222 C  
HETATM    7  C   UNL     1      -9.308  10.519  65.773  1.00  0.00    -0.188 C  
HETATM    8  O   UNL     1      -9.791   9.573  65.166  1.00  0.00    -0.248 OA 
HETATM    9  C   UNL     1     -10.721  13.477  67.057  1.00  0.00    -0.277 C  
ENDROOT
BRANCH   7  10
HETATM   10  O   UNL     1      -8.349  10.399  66.721  1.00  0.00    -0.123 OA 
BRANCH  10  11
HETATM   11  C   UNL     1      -8.416   9.216  67.517  1.00  0.00    -0.116 C  
HETATM   12  N   UNL     1      -9.815   8.879  67.727  1.00  0.00    -0.158 N  
HETATM   13  C   UNL     1     -10.183   7.701  67.089  1.00  0.00    -0.290 C  
HETATM   14  C   UNL     1      -7.938   8.079  66.646  1.00  0.00    -0.102 A  
HETATM   15  N   UNL     1      -6.701   7.903  66.126  1.00  0.00    -0.053 NA 
HETATM   16  C   UNL     1      -8.984   7.215  66.392  1.00  0.00    -0.155 A  
HETATM   17  O   UNL     1     -11.249   7.113  67.127  1.00  0.00    -0.276 OA 
HETATM   18  C   UNL     1      -6.592   6.798  65.343  1.00  0.00    -0.050 A  
HETATM   19  N   UNL     1      -8.896   6.109  65.629  1.00  0.00    -0.131 NA 
HETATM   20  C   UNL     1      -7.659   5.926  65.105  1.00  0.00    -0.088 A  
BRANCH  12  21
HETATM   21  C   UNL     1     -10.571   9.535  68.703  1.00  0.00    -0.210 A  
HETATM   22 CL   UNL     1     -13.091  11.312  71.934  1.00  0.00    -0.583 Cl 
HETATM   23  C   UNL     1     -12.275  11.099  69.366  1.00  0.00    -0.329 A  
HETATM   24  C   UNL     1     -11.160   9.710  70.936  1.00  0.00    -0.352 A  
HETATM   25  N   UNL     1     -10.366   9.161  69.984  1.00  0.00    -0.196 NA 
HETATM   26  C   UNL     1     -11.505  10.509  68.361  1.00  0.00    -0.285 A  
HETATM   27  C   UNL     1     -12.118  10.672  70.677  1.00  0.00    -0.365 A  
ENDBRANCH  12  21
ENDBRANCH  10  11
ENDBRANCH   7  10
TORSDOF 3
ENDMDL
MODEL      152
REMARK 921   NORMALIZED FREE ENERGY PREDICTED BY IDOCK:   -3.14 KCAL/MOL
REMARK 922        TOTAL FREE ENERGY PREDICTED BY IDOCK:   -4.50 KCAL/MOL
REMARK 923 INTER-LIGAND FREE ENERGY PREDICTED BY IDOCK:   -3.64 KCAL/MOL
REMARK 924 INTRA-LIGAND FREE ENERGY PREDICTED BY IDOCK:   -0.86 KCAL/MOL
REMARK 927      BINDING AFFINITY PREDICTED BY RF-SCORE:    0.00 PKD
ROOT
HETATM    1  C   UNL     1     -11.684  14.043  69.912  1.00  0.00    -0.303 C  
HETATM    2  N   UNL     1     -12.290  13.378  68.759  1.00  0.00    -0.090 NA 
HETATM    3  C   UNL     1     -11.803  13.948  67.482  1.00  0.00    -0.396 C  
HETATM    4  C   UNL     1     -10.359  13.557  67.118  1.00  0.00    -0.250 C  
HETATM    5  N   UNL     1     -10.180  12.110  67.171  1.00  0.00    -0.209 N  
HETATM    6  C   UNL     1     -10.607  11.487  68.426  1.00  0.00    -0.201 C  
HETATM    7  C   UNL     1      -9.939  11.409  66.006  1.00  0.00    -0.231 C  
HETATM    8  O   UNL     1      -9.899  11.927  64.899  1.00  0.00    -0.248 OA 
HETATM    9  C   UNL     1     -12.050  11.915  68.778  1.00  0.00    -0.124 C  
ENDROOT
BRANCH   7  10
HETATM   10  O   UNL     1      -9.724  10.091  66.233  1.00  0.00    -0.188 OA 
BRANCH  10  11
HETATM   11  C   UNL     1      -8.373   9.655  66.084  1.00  0.00    -0.119 C  
HETATM   12  N   UNL     1      -8.135   8.560  67.009  1.00  0.00    -0.103 N  
HETATM   13  C   UNL     1      -7.924   7.348  66.363  1.00  0.00    -0.108 C  
HETATM   14  C   UNL     1      -8.286   8.966  64.742  1.00  0.00    -0.175 A  
HETATM   15  N   UNL     1      -8.458   9.519  63.518  1.00  0.00    -0.183 NA 
HETATM   16  C   UNL     1      -8.042   7.620  64.925  1.00  0.00    -0.128 A  
HETATM   17  O   UNL     1      -7.629   6.269  66.843  1.00  0.00    -0.095 OA 
HETATM   18  C   UNL     1      -8.359   8.628  62.499  1.00  0.00    -0.195 A  
HETATM   19  N   UNL     1      -7.929   6.721  63.928  1.00  0.00    -0.103 NA 
HETATM   20  C   UNL     1      -8.099   7.268  62.700  1.00  0.00    -0.083 A  
BRANCH  12  21
HETATM   21  C   UNL     1      -7.866   8.809  68.359  1.00  0.00    -0.104 A  
HETATM   22 CL   UNL     1      -6.696   9.440  72.623  1.00  0.00     0.494 Cl 
HETATM   23  C   UNL     1      -8.409   8.628  70.696  1.00  0.00    -0.157 A  
HETATM   24  C   UNL     1      -6.375   9.598  69.946  1.00  0.00    -0.054 A  
HETATM   25  N   UNL     1      -6.705   9.437  68.641  1.00  0.00    -0.053 NA 
HETATM   26  C   UNL     1      -8.746   8.404  69.359  1.00  0.00    -0.137 A  
HETATM   27  C   UNL     1      -7.187   9.212  70.997  1.00  0.00    -0.100 A  
ENDBRANCH  12  21
ENDBRANCH  10  11
ENDBRANCH   7  10
TORSDOF 3
ENDMDL
MODEL      153
REMARK 921   NORMALIZED FREE ENERGY PREDICTED BY IDOCK:   -3.09 KCAL/MOL
REMARK 922        TOTAL FREE ENERGY PREDICTED BY IDOCK:   -4.44 KCAL/MOL
REMARK 923 INTER-LIGAND FREE ENERGY PREDICTED BY IDOCK:   -3.82 KCAL/MOL
REMARK 924 INTRA-LIGAND FREE ENERGY PREDICTED BY IDOCK:   -0.62 KCAL/MOL
REMARK 927      BINDING AFFINITY PREDICTED BY RF-SCORE:    0.00 PKD
ROOT
HETATM    1  C   UNL     1     -12.231  11.955  70.333  1.00  0.00    -0.314 C  
HETATM    2  N   UNL     1     -12.248  10.638  69.697  1.00  0.00    -0.261 NA 
HETATM    3  C   UNL     1     -11.596  10.666  68.368  1.00  0.00    -0.194 C  
HETATM    4  C   UNL     1     -10.061  10.773  68.411  1.00  0.00    -0.169 C  
HETATM    5  N   UNL     1      -9.489   9.747  69.275  1.00  0.00    -0.182 N  
HETATM    6  C   UNL     1     -10.064   9.691  70.622  1.00  0.00    -0.256 C  
HETATM    7  C   UNL     1      -8.722   8.739  68.725  1.00  0.00    -0.137 C  
HETATM    8  O   UNL     1      -8.511   8.627  67.525  1.00  0.00    -0.122 OA 
HETATM    9  C   UNL     1     -11.605   9.608  70.548  1.00  0.00    -0.272 C  
ENDROOT
BRANCH   7  10
HETATM   10  O   UNL     1      -8.206   7.912  69.665  1.00  0.00    -0.119 OA 
BRANCH  10  11
HETATM   11  C   UNL     1      -8.868   6.656  69.808  1.00  0.00    -0.144 C  
HETATM   12  N   UNL     1      -8.068   5.634  69.153  1.00  0.00    -0.096 N  
HETATM   13  C   UNL     1      -7.522   4.724  70.050  1.00  0.00    -0.055 C  
HETATM   14  C   UNL     1      -8.753   6.270  71.264  1.00  0.00    -0.135 A  
HETATM   15  N   UNL     1      -9.291   6.906  72.331  1.00  0.00    -0.137 NA 
HETATM   16  C   UNL     1      -7.952   5.153  71.388  1.00  0.00    -0.112 A  
HETATM   17  O   UNL     1      -6.873   3.720  69.818  1.00  0.00    -0.040 OA 
HETATM   18  C   UNL     1      -8.973   6.337  73.522  1.00  0.00    -0.124 A  
HETATM   19  N   UNL     1      -7.632   4.566  72.557  1.00  0.00    -0.083 NA 
HETATM   20  C   UNL     1      -8.168   5.197  73.630  1.00  0.00    -0.109 A  
BRANCH  12  21
HETATM   21  C   UNL     1      -8.123   5.462  67.767  1.00  0.00    -0.100 A  
HETATM   22 CL   UNL     1      -8.475   4.612  63.395  1.00  0.00    -0.112 Cl 
HETATM   23  C   UNL     1      -7.067   5.239  65.616  1.00  0.00    -0.067 A  
HETATM   24  C   UNL     1      -9.412   4.997  65.899  1.00  0.00    -0.162 A  
HETATM   25  N   UNL     1      -9.345   5.267  67.226  1.00  0.00    -0.116 NA 
HETATM   26  C   UNL     1      -6.967   5.468  66.990  1.00  0.00    -0.065 A  
HETATM   27  C   UNL     1      -8.311   4.972  65.063  1.00  0.00    -0.140 A  
ENDBRANCH  12  21
ENDBRANCH  10  11
ENDBRANCH   7  10
TORSDOF 3
ENDMDL
MODEL      154
REMARK 921   NORMALIZED FREE ENERGY PREDICTED BY IDOCK:   -3.08 KCAL/MOL
REMARK 922        TOTAL FREE ENERGY PREDICTED BY IDOCK:   -4.43 KCAL/MOL
REMARK 923 INTER-LIGAND FREE ENERGY PREDICTED BY IDOCK:   -5.76 KCAL/MOL
REMARK 924 INTRA-LIGAND FREE ENERGY PREDICTED BY IDOCK:    1.34 KCAL/MOL
REMARK 927      BINDING AFFINITY PREDICTED BY RF-SCORE:    0.00 PKD
ROOT
HETATM    1  C   UNL     1     -13.438   8.558  71.568  1.00  0.00    -0.294 C  
HETATM    2  N   UNL     1     -12.484   9.592  71.965  1.00  0.00    -0.358 NA 
HETATM    3  C   UNL     1     -11.088   9.184  71.687  1.00  0.00    -0.375 C  
HETATM    4  C   UNL     1     -10.700   9.210  70.197  1.00  0.00    -0.233 C  
HETATM    5  N   UNL     1     -11.020  10.501  69.596  1.00  0.00    -0.264 N  
HETATM    6  C   UNL     1     -12.400  10.947  69.802  1.00  0.00    -0.256 C  
HETATM    7  C   UNL     1      -9.998  11.330  69.175  1.00  0.00    -0.035 C  
HETATM    8  O   UNL     1      -8.812  11.062  69.304  1.00  0.00    -0.050 OA 
HETATM    9  C   UNL     1     -12.769  10.887  71.302  1.00  0.00    -0.437 C  
ENDROOT
BRANCH   7  10
HETATM   10  O   UNL     1     -10.460  12.453  68.575  1.00  0.00    -0.226 OA 
BRANCH  10  11
HETATM   11  C   UNL     1      -9.930  12.718  67.277  1.00  0.00    -0.219 C  
HETATM   12  N   UNL     1      -8.626  13.342  67.429  1.00  0.00    -0.194 N  
HETATM   13  C   UNL     1      -7.589  12.531  66.985  1.00  0.00    -0.015 C  
HETATM   14  C   UNL     1      -9.578  11.380  66.670  1.00  0.00    -0.191 A  
HETATM   15  N   UNL     1     -10.424  10.376  66.342  1.00  0.00    -0.210 NA 
HETATM   16  C   UNL     1      -8.209  11.281  66.523  1.00  0.00    -0.165 A  
HETATM   17  O   UNL     1      -6.401  12.784  66.908  1.00  0.00    -0.146 OA 
HETATM   18  C   UNL     1      -9.797   9.275  65.852  1.00  0.00    -0.265 A  
HETATM   19  N   UNL     1      -7.568  10.204  66.030  1.00  0.00    -0.112 NA 
HETATM   20  C   UNL     1      -8.410   9.194  65.699  1.00  0.00    -0.125 A  
BRANCH  12  21
HETATM   21  C   UNL     1      -8.514  14.706  67.713  1.00  0.00    -0.174 A  
HETATM   22 CL   UNL     1      -7.959  19.096  68.329  1.00  0.00    -0.347 Cl 
HETATM   23  C   UNL     1      -7.883  16.524  69.158  1.00  0.00    -0.192 A  
HETATM   24  C   UNL     1      -8.680  16.887  66.951  1.00  0.00    -0.223 A  
HETATM   25  N   UNL     1      -8.876  15.563  66.735  1.00  0.00    -0.242 NA 
HETATM   26  C   UNL     1      -8.028  15.152  68.939  1.00  0.00    -0.178 A  
HETATM   27  C   UNL     1      -8.190  17.408  68.134  1.00  0.00    -0.238 A  
ENDBRANCH  12  21
ENDBRANCH  10  11
ENDBRANCH   7  10
TORSDOF 3
ENDMDL
MODEL      155
REMARK 921   NORMALIZED FREE ENERGY PREDICTED BY IDOCK:   -3.04 KCAL/MOL
REMARK 922        TOTAL FREE ENERGY PREDICTED BY IDOCK:   -4.38 KCAL/MOL
REMARK 923 INTER-LIGAND FREE ENERGY PREDICTED BY IDOCK:   -6.12 KCAL/MOL
REMARK 924 INTRA-LIGAND FREE ENERGY PREDICTED BY IDOCK:    1.74 KCAL/MOL
REMARK 927      BINDING AFFINITY PREDICTED BY RF-SCORE:    0.00 PKD
ROOT
HETATM    1  C   UNL     1     -13.910  15.192  70.852  1.00  0.00    -0.241 C  
HETATM    2  N   UNL     1     -12.515  14.949  71.216  1.00  0.00    -0.306 NA 
HETATM    3  C   UNL     1     -12.193  13.503  71.208  1.00  0.00    -0.117 C  
HETATM    4  C   UNL     1     -12.074  12.883  69.803  1.00  0.00    -0.245 C  
HETATM    5  N   UNL     1     -11.155  13.651  68.970  1.00  0.00    -0.257 N  
HETATM    6  C   UNL     1     -11.442  15.086  68.903  1.00  0.00    -0.314 C  
HETATM    7  C   UNL     1      -9.957  13.087  68.575  1.00  0.00    -0.172 C  
HETATM    8  O   UNL     1      -9.590  11.970  68.914  1.00  0.00    -0.053 OA 
HETATM    9  C   UNL     1     -11.579  15.675  70.326  1.00  0.00    -0.356 C  
ENDROOT
BRANCH   7  10
HETATM   10  O   UNL     1      -9.254  13.896  67.748  1.00  0.00    -0.183 OA 
BRANCH  10  11
HETATM   11  C   UNL     1      -9.353  13.589  66.358  1.00  0.00    -0.176 C  
HETATM   12  N   UNL     1     -10.261  12.465  66.196  1.00  0.00    -0.237 N  
HETATM   13  C   UNL     1     -11.438  12.817  65.547  1.00  0.00    -0.337 C  
HETATM   14  C   UNL     1     -10.123  14.720  65.717  1.00  0.00    -0.339 A  
HETATM   15  N   UNL     1      -9.749  16.016  65.613  1.00  0.00    -0.432 NA 
HETATM   16  C   UNL     1     -11.342  14.256  65.266  1.00  0.00    -0.336 A  
HETATM   17  O   UNL     1     -12.359  12.102  65.197  1.00  0.00    -0.488 OA 
HETATM   18  C   UNL     1     -10.681  16.805  65.019  1.00  0.00    -0.100 A  
HETATM   19  N   UNL     1     -12.276  15.018  64.665  1.00  0.00    -0.339 NA 
HETATM   20  C   UNL     1     -11.907  16.318  64.556  1.00  0.00     0.181 A  
BRANCH  12  21
HETATM   21  C   UNL     1      -9.825  11.155  66.417  1.00  0.00    -0.211 A  
HETATM   22 CL   UNL     1      -8.273   6.984  66.805  1.00  0.00    -0.109 Cl 
HETATM   23  C   UNL     1     -10.246   8.830  66.872  1.00  0.00    -0.357 A  
HETATM   24  C   UNL     1      -8.065   9.649  66.413  1.00  0.00    -0.112 A  
HETATM   25  N   UNL     1      -8.498  10.929  66.304  1.00  0.00    -0.162 NA 
HETATM   26  C   UNL     1     -10.723  10.134  66.713  1.00  0.00    -0.191 A  
HETATM   27  C   UNL     1      -8.894   8.578  66.693  1.00  0.00    -0.135 A  
ENDBRANCH  12  21
ENDBRANCH  10  11
ENDBRANCH   7  10
TORSDOF 3
ENDMDL
MODEL      156
REMARK 921   NORMALIZED FREE ENERGY PREDICTED BY IDOCK:   -3.03 KCAL/MOL
REMARK 922        TOTAL FREE ENERGY PREDICTED BY IDOCK:   -4.37 KCAL/MOL
REMARK 923 INTER-LIGAND FREE ENERGY PREDICTED BY IDOCK:   -4.09 KCAL/MOL
REMARK 924 INTRA-LIGAND FREE ENERGY PREDICTED BY IDOCK:   -0.28 KCAL/MOL
REMARK 927      BINDING AFFINITY PREDICTED BY RF-SCORE:    0.00 PKD
ROOT
HETATM    1  C   UNL     1      -9.109  16.321  66.622  1.00  0.00    -0.248 C  
HETATM    2  N   UNL     1      -9.578  15.836  67.919  1.00  0.00    -0.213 NA 
HETATM    3  C   UNL     1     -10.871  15.125  67.801  1.00  0.00    -0.292 C  
HETATM    4  C   UNL     1     -10.775  13.727  67.163  1.00  0.00    -0.281 C  
HETATM    5  N   UNL     1      -9.766  12.914  67.833  1.00  0.00    -0.211 N  
HETATM    6  C   UNL     1      -8.450  13.545  67.949  1.00  0.00    -0.179 C  
HETATM    7  C   UNL     1     -10.155  11.806  68.561  1.00  0.00    -0.207 C  
HETATM    8  O   UNL     1     -11.321  11.471  68.714  1.00  0.00    -0.216 OA 
HETATM    9  C   UNL     1      -8.579  14.955  68.570  1.00  0.00    -0.162 C  
ENDROOT
BRANCH   7  10
HETATM   10  O   UNL     1      -9.099  11.120  69.058  1.00  0.00    -0.134 OA 
BRANCH  10  11
HETATM   11  C   UNL     1      -9.140   9.706  68.868  1.00  0.00    -0.144 C  
HETATM   12  N   UNL     1      -7.809   9.249  68.504  1.00  0.00    -0.089 N  
HETATM   13  C   UNL     1      -7.229   8.455  69.485  1.00  0.00    -0.061 C  
HETATM   14  C   UNL     1      -9.330   9.090  70.234  1.00  0.00    -0.198 A  
HETATM   15  N   UNL     1     -10.399   9.216  71.054  1.00  0.00    -0.267 NA 
HETATM   16  C   UNL     1      -8.200   8.380  70.585  1.00  0.00    -0.116 A  
HETATM   17  O   UNL     1      -6.165   7.864  69.457  1.00  0.00    -0.033 OA 
HETATM   18  C   UNL     1     -10.253   8.573  72.241  1.00  0.00    -0.325 A  
HETATM   19  N   UNL     1      -8.038   7.727  71.751  1.00  0.00    -0.101 NA 
HETATM   20  C   UNL     1      -9.106   7.848  72.578  1.00  0.00    -0.187 A  
BRANCH  12  21
HETATM   21  C   UNL     1      -7.344   9.375  67.191  1.00  0.00    -0.087 A  
HETATM   22 CL   UNL     1      -5.536   9.679  63.118  1.00  0.00    -0.079 Cl 
HETATM   23  C   UNL     1      -6.969  10.658  65.190  1.00  0.00     0.061 A  
HETATM   24  C   UNL     1      -6.168   8.435  65.431  1.00  0.00    -0.045 A  
HETATM   25  N   UNL     1      -6.718   8.302  66.663  1.00  0.00    -0.063 NA 
HETATM   26  C   UNL     1      -7.498  10.561  66.479  1.00  0.00    -0.128 A  
HETATM   27  C   UNL     1      -6.267   9.583  64.665  1.00  0.00    -0.082 A  
ENDBRANCH  12  21
ENDBRANCH  10  11
ENDBRANCH   7  10
TORSDOF 3
ENDMDL
MODEL      157
REMARK 921   NORMALIZED FREE ENERGY PREDICTED BY IDOCK:   -3.03 KCAL/MOL
REMARK 922        TOTAL FREE ENERGY PREDICTED BY IDOCK:   -4.37 KCAL/MOL
REMARK 923 INTER-LIGAND FREE ENERGY PREDICTED BY IDOCK:   -5.23 KCAL/MOL
REMARK 924 INTRA-LIGAND FREE ENERGY PREDICTED BY IDOCK:    0.87 KCAL/MOL
REMARK 927      BINDING AFFINITY PREDICTED BY RF-SCORE:    0.00 PKD
ROOT
HETATM    1  C   UNL     1     -13.060  11.390  72.030  1.00  0.00    -0.318 C  
HETATM    2  N   UNL     1     -13.096  10.705  70.739  1.00  0.00    -0.298 NA 
HETATM    3  C   UNL     1     -11.763  10.690  70.093  1.00  0.00    -0.332 C  
HETATM    4  C   UNL     1     -10.755   9.717  70.732  1.00  0.00    -0.331 C  
HETATM    5  N   UNL     1     -11.321   8.377  70.845  1.00  0.00    -0.266 N  
HETATM    6  C   UNL     1     -12.624   8.317  71.510  1.00  0.00    -0.309 C  
HETATM    7  C   UNL     1     -10.796   7.348  70.087  1.00  0.00    -0.256 C  
HETATM    8  O   UNL     1      -9.887   7.494  69.283  1.00  0.00    -0.165 OA 
HETATM    9  C   UNL     1     -13.608   9.320  70.864  1.00  0.00     0.078 C  
ENDROOT
BRANCH   7  10
HETATM   10  O   UNL     1     -11.381   6.157  70.361  1.00  0.00    -0.352 OA 
BRANCH  10  11
HETATM   11  C   UNL     1     -10.533   5.180  70.963  1.00  0.00    -0.171 C  
HETATM   12  N   UNL     1      -9.344   5.029  70.141  1.00  0.00    -0.147 N  
HETATM   13  C   UNL     1      -8.194   5.485  70.772  1.00  0.00    -0.117 C  
HETATM   14  C   UNL     1      -9.976   5.806  72.221  1.00  0.00    -0.170 A  
HETATM   15  N   UNL     1     -10.661   6.190  73.324  1.00  0.00    -0.244 NA 
HETATM   16  C   UNL     1      -8.615   5.993  72.084  1.00  0.00    -0.128 A  
HETATM   17  O   UNL     1      -7.040   5.433  70.387  1.00  0.00    -0.057 OA 
HETATM   18  C   UNL     1      -9.881   6.763  74.276  1.00  0.00    -0.317 A  
HETATM   19  N   UNL     1      -7.822   6.549  73.020  1.00  0.00    -0.104 NA 
HETATM   20  C   UNL     1      -8.501   6.935  74.128  1.00  0.00    -0.148 A  
BRANCH  12  21
HETATM   21  C   UNL     1      -9.369   4.241  68.986  1.00  0.00    -0.160 A  
HETATM   22 CL   UNL     1      -9.125   1.606  65.387  1.00  0.00    -0.118 Cl 
HETATM   23  C   UNL     1      -9.559   3.982  66.601  1.00  0.00    -0.228 A  
HETATM   24  C   UNL     1      -9.055   2.154  68.031  1.00  0.00    -0.178 A  
HETATM   25  N   UNL     1      -9.137   2.920  69.146  1.00  0.00    -0.122 NA 
HETATM   26  C   UNL     1      -9.597   4.801  67.732  1.00  0.00    -0.194 A  
HETATM   27  C   UNL     1      -9.256   2.636  66.751  1.00  0.00    -0.083 A  
ENDBRANCH  12  21
ENDBRANCH  10  11
ENDBRANCH   7  10
TORSDOF 3
ENDMDL
MODEL      158
REMARK 921   NORMALIZED FREE ENERGY PREDICTED BY IDOCK:   -2.97 KCAL/MOL
REMARK 922        TOTAL FREE ENERGY PREDICTED BY IDOCK:   -4.30 KCAL/MOL
REMARK 923 INTER-LIGAND FREE ENERGY PREDICTED BY IDOCK:   -5.68 KCAL/MOL
REMARK 924 INTRA-LIGAND FREE ENERGY PREDICTED BY IDOCK:    1.37 KCAL/MOL
REMARK 927      BINDING AFFINITY PREDICTED BY RF-SCORE:    0.00 PKD
ROOT
HETATM    1  C   UNL     1     -13.385  15.631  71.180  1.00  0.00    -0.367 C  
HETATM    2  N   UNL     1     -12.016  15.455  70.696  1.00  0.00    -0.323 NA 
HETATM    3  C   UNL     1     -11.492  14.108  71.017  1.00  0.00     0.248 C  
HETATM    4  C   UNL     1     -12.084  12.972  70.162  1.00  0.00    -0.307 C  
HETATM    5  N   UNL     1     -11.970  13.275  68.739  1.00  0.00    -0.328 N  
HETATM    6  C   UNL     1     -12.506  14.580  68.347  1.00  0.00     0.224 C  
HETATM    7  C   UNL     1     -11.133  12.517  67.945  1.00  0.00    -0.245 C  
HETATM    8  O   UNL     1     -10.436  11.606  68.370  1.00  0.00    -0.197 OA 
HETATM    9  C   UNL     1     -11.914  15.697  69.237  1.00  0.00    -0.320 C  
ENDROOT
BRANCH   7  10
HETATM   10  O   UNL     1     -11.196  12.876  66.640  1.00  0.00    -0.283 OA 
BRANCH  10  11
HETATM   11  C   UNL     1      -9.938  13.021  65.981  1.00  0.00    -0.276 C  
HETATM   12  N   UNL     1      -8.988  13.594  66.920  1.00  0.00    -0.237 N  
HETATM   13  C   UNL     1      -7.978  12.707  67.270  1.00  0.00    -0.166 C  
HETATM   14  C   UNL     1      -9.391  11.628  65.780  1.00  0.00    -0.205 A  
HETATM   15  N   UNL     1      -9.910  10.641  65.012  1.00  0.00    -0.268 NA 
HETATM   16  C   UNL     1      -8.259  11.456  66.551  1.00  0.00    -0.152 A  
HETATM   17  O   UNL     1      -7.000  12.900  67.968  1.00  0.00    -0.082 OA 
HETATM   18  C   UNL     1      -9.208   9.480  65.070  1.00  0.00    -0.236 A  
HETATM   19  N   UNL     1      -7.542  10.318  66.616  1.00  0.00    -0.106 NA 
HETATM   20  C   UNL     1      -8.056   9.326  65.848  1.00  0.00    -0.111 A  
BRANCH  12  21
HETATM   21  C   UNL     1      -8.973  14.969  67.173  1.00  0.00    -0.217 A  
HETATM   22 CL   UNL     1      -9.160  19.304  68.238  1.00  0.00    -0.378 Cl 
HETATM   23  C   UNL     1      -9.268  17.255  66.479  1.00  0.00    -0.282 A  
HETATM   24  C   UNL     1      -8.790  16.674  68.731  1.00  0.00    -0.264 A  
HETATM   25  N   UNL     1      -8.709  15.352  68.440  1.00  0.00    -0.166 NA 
HETATM   26  C   UNL     1      -9.242  15.893  66.167  1.00  0.00    -0.384 A  
HETATM   27  C   UNL     1      -9.065  17.651  67.792  1.00  0.00    -0.247 A  
ENDBRANCH  12  21
ENDBRANCH  10  11
ENDBRANCH   7  10
TORSDOF 3
ENDMDL
MODEL      159
REMARK 921   NORMALIZED FREE ENERGY PREDICTED BY IDOCK:   -2.96 KCAL/MOL
REMARK 922        TOTAL FREE ENERGY PREDICTED BY IDOCK:   -4.29 KCAL/MOL
REMARK 923 INTER-LIGAND FREE ENERGY PREDICTED BY IDOCK:   -4.44 KCAL/MOL
REMARK 924 INTRA-LIGAND FREE ENERGY PREDICTED BY IDOCK:    0.15 KCAL/MOL
REMARK 927      BINDING AFFINITY PREDICTED BY RF-SCORE:    0.00 PKD
ROOT
HETATM    1  C   UNL     1     -12.179  14.752  64.073  1.00  0.00    -0.155 C  
HETATM    2  N   UNL     1     -10.959  14.950  64.854  1.00  0.00    -0.402 NA 
HETATM    3  C   UNL     1     -11.228  15.693  66.106  1.00  0.00    -0.036 C  
HETATM    4  C   UNL     1     -11.950  14.874  67.192  1.00  0.00    -0.114 C  
HETATM    5  N   UNL     1     -11.258  13.615  67.445  1.00  0.00    -0.292 N  
HETATM    6  C   UNL     1     -10.995  12.811  66.249  1.00  0.00    -0.280 C  
HETATM    7  C   UNL     1     -10.640  13.407  68.662  1.00  0.00    -0.241 C  
HETATM    8  O   UNL     1     -10.604  14.242  69.555  1.00  0.00    -0.149 OA 
HETATM    9  C   UNL     1     -10.292  13.664  65.168  1.00  0.00    -0.364 C  
ENDROOT
BRANCH   7  10
HETATM   10  O   UNL     1     -10.109  12.166  68.765  1.00  0.00    -0.184 OA 
BRANCH  10  11
HETATM   11  C   UNL     1      -8.973  11.914  67.940  1.00  0.00    -0.179 C  
HETATM   12  N   UNL     1      -7.800  12.489  68.578  1.00  0.00    -0.132 N  
HETATM   13  C   UNL     1      -6.899  11.525  69.011  1.00  0.00    -0.107 C  
HETATM   14  C   UNL     1      -8.693  10.431  68.028  1.00  0.00    -0.123 A  
HETATM   15  N   UNL     1      -9.481   9.417  67.604  1.00  0.00    -0.131 NA 
HETATM   16  C   UNL     1      -7.489  10.223  68.671  1.00  0.00    -0.086 A  
HETATM   17  O   UNL     1      -5.799  11.678  69.511  1.00  0.00    -0.063 OA 
HETATM   18  C   UNL     1      -8.971   8.186  67.865  1.00  0.00    -0.133 A  
HETATM   19  N   UNL     1      -6.959   9.012  68.930  1.00  0.00    -0.064 NA 
HETATM   20  C   UNL     1      -7.744   7.991  68.506  1.00  0.00    -0.106 A  
BRANCH  12  21
HETATM   21  C   UNL     1      -7.527  13.856  68.473  1.00  0.00    -0.122 A  
HETATM   22 CL   UNL     1      -6.410  18.142  67.892  1.00  0.00    -0.180 Cl 
HETATM   23  C   UNL     1      -6.864  15.964  69.426  1.00  0.00    -0.200 A  
HETATM   24  C   UNL     1      -7.230  15.695  67.095  1.00  0.00    -0.195 A  
HETATM   25  N   UNL     1      -7.591  14.396  67.237  1.00  0.00    -0.167 NA 
HETATM   26  C   UNL     1      -7.181  14.613  69.589  1.00  0.00    -0.098 A  
HETATM   27  C   UNL     1      -6.863  16.509  68.151  1.00  0.00    -0.136 A  
ENDBRANCH  12  21
ENDBRANCH  10  11
ENDBRANCH   7  10
TORSDOF 3
ENDMDL
MODEL      160
REMARK 921   NORMALIZED FREE ENERGY PREDICTED BY IDOCK:   -2.93 KCAL/MOL
REMARK 922        TOTAL FREE ENERGY PREDICTED BY IDOCK:   -4.25 KCAL/MOL
REMARK 923 INTER-LIGAND FREE ENERGY PREDICTED BY IDOCK:   -5.47 KCAL/MOL
REMARK 924 INTRA-LIGAND FREE ENERGY PREDICTED BY IDOCK:    1.21 KCAL/MOL
REMARK 927      BINDING AFFINITY PREDICTED BY RF-SCORE:    0.00 PKD
ROOT
HETATM    1  C   UNL     1      -6.207   8.294  63.805  1.00  0.00    -0.072 C  
HETATM    2  N   UNL     1      -7.167   9.345  64.140  1.00  0.00    -0.102 NA 
HETATM    3  C   UNL     1      -8.550   8.819  64.208  1.00  0.00    -0.068 C  
HETATM    4  C   UNL     1      -8.848   7.965  65.454  1.00  0.00     0.021 C  
HETATM    5  N   UNL     1      -8.474   8.672  66.674  1.00  0.00    -0.110 N  
HETATM    6  C   UNL     1      -7.102   9.185  66.687  1.00  0.00    -0.082 C  
HETATM    7  C   UNL     1      -9.455   9.077  67.557  1.00  0.00    -0.137 C  
HETATM    8  O   UNL     1     -10.651   8.908  67.364  1.00  0.00    -0.277 OA 
HETATM    9  C   UNL     1      -6.824  10.018  65.415  1.00  0.00    -0.122 C  
ENDROOT
BRANCH   7  10
HETATM   10  O   UNL     1      -8.942   9.651  68.671  1.00  0.00    -0.126 OA 
BRANCH  10  11
HETATM   11  C   UNL     1      -9.159   8.937  69.886  1.00  0.00    -0.161 C  
HETATM   12  N   UNL     1     -10.586   8.701  70.035  1.00  0.00    -0.224 N  
HETATM   13  C   UNL     1     -10.920   7.357  69.934  1.00  0.00    -0.223 C  
HETATM   14  C   UNL     1      -8.623   7.541  69.671  1.00  0.00    -0.136 A  
HETATM   15  N   UNL     1      -7.339   7.176  69.448  1.00  0.00    -0.088 NA 
HETATM   16  C   UNL     1      -9.665   6.636  69.684  1.00  0.00    -0.154 A  
HETATM   17  O   UNL     1     -12.006   6.827  70.084  1.00  0.00    -0.328 OA 
HETATM   18  C   UNL     1      -7.179   5.842  69.248  1.00  0.00    -0.074 A  
HETATM   19  N   UNL     1      -9.528   5.308  69.499  1.00  0.00    -0.129 NA 
HETATM   20  C   UNL     1      -8.244   4.935  69.276  1.00  0.00    -0.081 A  
BRANCH  12  21
HETATM   21  C   UNL     1     -11.430   9.706  70.518  1.00  0.00    -0.285 A  
HETATM   22 CL   UNL     1     -13.840  13.117  72.103  1.00  0.00    -0.554 Cl 
HETATM   23  C   UNL     1     -13.085  10.521  72.063  1.00  0.00    -0.511 A  
HETATM   24  C   UNL     1     -12.077  11.928  70.437  1.00  0.00    -0.333 A  
HETATM   25  N   UNL     1     -11.343  10.913  69.920  1.00  0.00    -0.289 NA 
HETATM   26  C   UNL     1     -12.299   9.472  71.581  1.00  0.00    -0.480 A  
HETATM   27  C   UNL     1     -12.952  11.781  71.498  1.00  0.00    -0.341 A  
ENDBRANCH  12  21
ENDBRANCH  10  11
ENDBRANCH   7  10
TORSDOF 3
ENDMDL
MODEL      161
REMARK 921   NORMALIZED FREE ENERGY PREDICTED BY IDOCK:   -2.87 KCAL/MOL
REMARK 922        TOTAL FREE ENERGY PREDICTED BY IDOCK:   -4.18 KCAL/MOL
REMARK 923 INTER-LIGAND FREE ENERGY PREDICTED BY IDOCK:   -3.27 KCAL/MOL
REMARK 924 INTRA-LIGAND FREE ENERGY PREDICTED BY IDOCK:   -0.90 KCAL/MOL
REMARK 927      BINDING AFFINITY PREDICTED BY RF-SCORE:    0.00 PKD
ROOT
HETATM    1  C   UNL     1      -9.823   6.223  72.645  1.00  0.00    -0.166 C  
HETATM    2  N   UNL     1     -10.091   7.489  71.964  1.00  0.00    -0.184 NA 
HETATM    3  C   UNL     1      -8.964   8.437  72.113  1.00  0.00    -0.223 C  
HETATM    4  C   UNL     1      -7.722   8.092  71.271  1.00  0.00    -0.091 C  
HETATM    5  N   UNL     1      -8.080   7.889  69.871  1.00  0.00    -0.116 N  
HETATM    6  C   UNL     1      -9.165   6.930  69.650  1.00  0.00    -0.146 C  
HETATM    7  C   UNL     1      -7.637   8.783  68.916  1.00  0.00    -0.091 C  
HETATM    8  O   UNL     1      -6.976   9.778  69.175  1.00  0.00    -0.052 OA 
HETATM    9  C   UNL     1     -10.388   7.287  70.526  1.00  0.00    -0.206 C  
ENDROOT
BRANCH   7  10
HETATM   10  O   UNL     1      -7.992   8.414  67.662  1.00  0.00    -0.108 OA 
BRANCH  10  11
HETATM   11  C   UNL     1      -6.980   7.746  66.909  1.00  0.00    -0.073 C  
HETATM   12  N   UNL     1      -7.620   6.789  66.022  1.00  0.00    -0.084 N  
HETATM   13  C   UNL     1      -7.492   7.131  64.682  1.00  0.00    -0.098 C  
HETATM   14  C   UNL     1      -6.421   8.760  65.938  1.00  0.00    -0.057 A  
HETATM   15  N   UNL     1      -5.741   9.893  66.231  1.00  0.00    -0.056 NA 
HETATM   16  C   UNL     1      -6.744   8.395  64.647  1.00  0.00    -0.068 A  
HETATM   17  O   UNL     1      -7.847   6.509  63.697  1.00  0.00    -0.110 OA 
HETATM   18  C   UNL     1      -5.405  10.624  65.136  1.00  0.00    -0.151 A  
HETATM   19  N   UNL     1      -6.412   9.098  63.547  1.00  0.00    -0.090 NA 
HETATM   20  C   UNL     1      -5.729  10.235  63.833  1.00  0.00    -0.145 A  
BRANCH  12  21
HETATM   21  C   UNL     1      -8.039   5.542  66.497  1.00  0.00    -0.105 A  
HETATM   22 CL   UNL     1      -9.643   1.726  68.176  1.00  0.00    -0.218 Cl 
HETATM   23  C   UNL     1      -7.659   3.505  67.720  1.00  0.00    -0.069 A  
HETATM   24  C   UNL     1      -9.774   4.034  66.778  1.00  0.00    -0.190 A  
HETATM   25  N   UNL     1      -9.317   5.191  66.240  1.00  0.00    -0.144 NA 
HETATM   26  C   UNL     1      -7.181   4.718  67.220  1.00  0.00    -0.073 A  
HETATM   27  C   UNL     1      -8.990   3.168  67.518  1.00  0.00    -0.158 A  
ENDBRANCH  12  21
ENDBRANCH  10  11
ENDBRANCH   7  10
TORSDOF 3
ENDMDL
MODEL      162
REMARK 921   NORMALIZED FREE ENERGY PREDICTED BY IDOCK:   -2.76 KCAL/MOL
REMARK 922        TOTAL FREE ENERGY PREDICTED BY IDOCK:   -4.06 KCAL/MOL
REMARK 923 INTER-LIGAND FREE ENERGY PREDICTED BY IDOCK:   -5.44 KCAL/MOL
REMARK 924 INTRA-LIGAND FREE ENERGY PREDICTED BY IDOCK:    1.39 KCAL/MOL
REMARK 927      BINDING AFFINITY PREDICTED BY RF-SCORE:    0.00 PKD
ROOT
HETATM    1  C   UNL     1     -10.338  14.975  66.140  1.00  0.00    -0.299 C  
HETATM    2  N   UNL     1     -11.093  14.411  67.258  1.00  0.00    -0.301 NA 
HETATM    3  C   UNL     1     -11.977  13.308  66.819  1.00  0.00    -0.382 C  
HETATM    4  C   UNL     1     -11.243  11.998  66.479  1.00  0.00    -0.334 C  
HETATM    5  N   UNL     1     -10.367  11.590  67.573  1.00  0.00    -0.190 N  
HETATM    6  C   UNL     1      -9.438  12.626  68.031  1.00  0.00    -0.209 C  
HETATM    7  C   UNL     1     -10.656  10.445  68.289  1.00  0.00    -0.212 C  
HETATM    8  O   UNL     1     -11.640   9.748  68.084  1.00  0.00     0.060 OA 
HETATM    9  C   UNL     1     -10.199  13.935  68.341  1.00  0.00    -0.243 C  
ENDROOT
BRANCH   7  10
HETATM   10  O   UNL     1      -9.710  10.166  69.218  1.00  0.00    -0.201 OA 
BRANCH  10  11
HETATM   11  C   UNL     1      -8.829   9.091  68.894  1.00  0.00    -0.139 C  
HETATM   12  N   UNL     1      -9.619   7.884  68.713  1.00  0.00    -0.150 N  
HETATM   13  C   UNL     1      -9.617   7.435  67.399  1.00  0.00    -0.148 C  
HETATM   14  C   UNL     1      -8.319   9.355  67.497  1.00  0.00    -0.122 A  
HETATM   15  N   UNL     1      -7.545  10.384  67.082  1.00  0.00    -0.095 NA 
HETATM   16  C   UNL     1      -8.802   8.390  66.636  1.00  0.00    -0.142 A  
HETATM   17  O   UNL     1     -10.114   6.424  66.937  1.00  0.00    -0.160 OA 
HETATM   18  C   UNL     1      -7.287  10.369  65.749  1.00  0.00    -0.147 A  
HETATM   19  N   UNL     1      -8.550   8.349  65.313  1.00  0.00    -0.171 NA 
HETATM   20  C   UNL     1      -7.774   9.377  64.891  1.00  0.00    -0.111 A  
BRANCH  12  21
HETATM   21  C   UNL     1     -10.057   7.144  69.815  1.00  0.00    -0.195 A  
HETATM   22 CL   UNL     1     -11.301   5.022  73.544  1.00  0.00    -0.347 Cl 
HETATM   23  C   UNL     1     -10.161   5.109  71.095  1.00  0.00    -0.291 A  
HETATM   24  C   UNL     1     -11.118   7.137  71.874  1.00  0.00    -0.236 A  
HETATM   25  N   UNL     1     -10.771   7.809  70.749  1.00  0.00    -0.223 NA 
HETATM   26  C   UNL     1      -9.747   5.794  69.950  1.00  0.00    -0.212 A  
HETATM   27  C   UNL     1     -10.837   5.800  72.089  1.00  0.00    -0.244 A  
ENDBRANCH  12  21
ENDBRANCH  10  11
ENDBRANCH   7  10
TORSDOF 3
ENDMDL
MODEL      163
REMARK 921   NORMALIZED FREE ENERGY PREDICTED BY IDOCK:   -2.76 KCAL/MOL
REMARK 922        TOTAL FREE ENERGY PREDICTED BY IDOCK:   -4.05 KCAL/MOL
REMARK 923 INTER-LIGAND FREE ENERGY PREDICTED BY IDOCK:   -5.54 KCAL/MOL
REMARK 924 INTRA-LIGAND FREE ENERGY PREDICTED BY IDOCK:    1.49 KCAL/MOL
REMARK 927      BINDING AFFINITY PREDICTED BY RF-SCORE:    0.00 PKD
ROOT
HETATM    1  C   UNL     1      -7.439   3.919  64.415  1.00  0.00    -0.071 C  
HETATM    2  N   UNL     1      -8.412   5.011  64.386  1.00  0.00    -0.139 NA 
HETATM    3  C   UNL     1      -9.705   4.606  64.984  1.00  0.00    -0.073 C  
HETATM    4  C   UNL     1      -9.687   4.485  66.519  1.00  0.00    -0.207 C  
HETATM    5  N   UNL     1      -9.159   5.698  67.134  1.00  0.00    -0.112 N  
HETATM    6  C   UNL     1      -7.861   6.132  66.612  1.00  0.00    -0.104 C  
HETATM    7  C   UNL     1      -9.992   6.501  67.888  1.00  0.00    -0.131 C  
HETATM    8  O   UNL     1     -11.183   6.275  68.053  1.00  0.00    -0.323 OA 
HETATM    9  C   UNL     1      -7.900   6.222  65.070  1.00  0.00    -0.111 C  
ENDROOT
BRANCH   7  10
HETATM   10  O   UNL     1      -9.335   7.544  68.448  1.00  0.00    -0.142 OA 
BRANCH  10  11
HETATM   11  C   UNL     1      -9.320   7.567  69.874  1.00  0.00    -0.150 C  
HETATM   12  N   UNL     1     -10.671   7.819  70.347  1.00  0.00    -0.232 N  
HETATM   13  C   UNL     1     -11.220   6.728  71.008  1.00  0.00    -0.290 C  
HETATM   14  C   UNL     1      -9.080   6.145  70.328  1.00  0.00    -0.153 A  
HETATM   15  N   UNL     1      -7.976   5.390  70.125  1.00  0.00    -0.083 NA 
HETATM   16  C   UNL     1     -10.204   5.667  70.971  1.00  0.00    -0.220 A  
HETATM   17  O   UNL     1     -12.291   6.642  71.580  1.00  0.00    -0.349 OA 
HETATM   18  C   UNL     1      -8.080   4.130  70.619  1.00  0.00    -0.059 A  
HETATM   19  N   UNL     1     -10.325   4.425  71.478  1.00  0.00    -0.091 NA 
HETATM   20  C   UNL     1      -9.222   3.663  71.279  1.00  0.00    -0.127 A  
BRANCH  12  21
HETATM   21  C   UNL     1     -11.190   9.117  70.369  1.00  0.00    -0.240 A  
HETATM   22 CL   UNL     1     -12.517  13.383  70.402  1.00  0.00    -0.359 Cl 
HETATM   23  C   UNL     1     -12.435  10.884  71.428  1.00  0.00    -0.460 A  
HETATM   24  C   UNL     1     -11.271  11.212  69.385  1.00  0.00    -0.270 A  
HETATM   25  N   UNL     1     -10.864   9.920  69.334  1.00  0.00    -0.230 NA 
HETATM   26  C   UNL     1     -11.983   9.562  71.424  1.00  0.00    -0.464 A  
HETATM   27  C   UNL     1     -12.049  11.734  70.402  1.00  0.00    -0.352 A  
ENDBRANCH  12  21
ENDBRANCH  10  11
ENDBRANCH   7  10
TORSDOF 3
ENDMDL
MODEL      164
REMARK 921   NORMALIZED FREE ENERGY PREDICTED BY IDOCK:   -2.66 KCAL/MOL
REMARK 922        TOTAL FREE ENERGY PREDICTED BY IDOCK:   -3.93 KCAL/MOL
REMARK 923 INTER-LIGAND FREE ENERGY PREDICTED BY IDOCK:   -4.98 KCAL/MOL
REMARK 924 INTRA-LIGAND FREE ENERGY PREDICTED BY IDOCK:    1.05 KCAL/MOL
REMARK 927      BINDING AFFINITY PREDICTED BY RF-SCORE:    0.00 PKD
ROOT
HETATM    1  C   UNL     1     -12.098  14.339  63.425  1.00  0.00     0.496 C  
HETATM    2  N   UNL     1     -12.525  12.970  63.711  1.00  0.00    -0.694 NA 
HETATM    3  C   UNL     1     -11.453  11.991  63.419  1.00  0.00    -0.400 C  
HETATM    4  C   UNL     1     -10.298  11.987  64.438  1.00  0.00    -0.305 C  
HETATM    5  N   UNL     1     -10.802  11.851  65.800  1.00  0.00    -0.286 N  
HETATM    6  C   UNL     1     -11.841  12.816  66.167  1.00  0.00    -0.425 C  
HETATM    7  C   UNL     1     -10.533  10.701  66.517  1.00  0.00    -0.224 C  
HETATM    8  O   UNL     1      -9.913   9.750  66.063  1.00  0.00    -0.256 OA 
HETATM    9  C   UNL     1     -12.974  12.817  65.116  1.00  0.00     0.058 C  
ENDROOT
BRANCH   7  10
HETATM   10  O   UNL     1     -11.006  10.762  67.784  1.00  0.00    -0.252 OA 
BRANCH  10  11
HETATM   11  C   UNL     1     -10.025  10.982  68.796  1.00  0.00    -0.207 C  
HETATM   12  N   UNL     1      -9.028   9.928  68.712  1.00  0.00    -0.134 N  
HETATM   13  C   UNL     1      -7.786  10.396  68.305  1.00  0.00    -0.096 C  
HETATM   14  C   UNL     1      -9.238  12.203  68.379  1.00  0.00    -0.154 A  
HETATM   15  N   UNL     1      -9.691  13.472  68.254  1.00  0.00    -0.223 NA 
HETATM   16  C   UNL     1      -7.941  11.839  68.079  1.00  0.00    -0.141 A  
HETATM   17  O   UNL     1      -6.735   9.788  68.207  1.00  0.00    -0.060 OA 
HETATM   18  C   UNL     1      -8.747  14.345  67.816  1.00  0.00    -0.180 A  
HETATM   19  N   UNL     1      -6.987  12.690  67.654  1.00  0.00    -0.125 NA 
HETATM   20  C   UNL     1      -7.433  13.964  67.528  1.00  0.00    -0.169 A  
BRANCH  12  21
HETATM   21  C   UNL     1      -9.269   8.669  69.272  1.00  0.00    -0.150 A  
HETATM   22 CL   UNL     1     -10.219   4.568  70.767  1.00  0.00    -0.227 Cl 
HETATM   23  C   UNL     1     -10.134   7.258  71.019  1.00  0.00    -0.195 A  
HETATM   24  C   UNL     1      -9.237   6.368  69.008  1.00  0.00    -0.129 A  
HETATM   25  N   UNL     1      -8.920   7.597  68.531  1.00  0.00    -0.130 NA 
HETATM   26  C   UNL     1      -9.864   8.536  70.524  1.00  0.00    -0.206 A  
HETATM   27  C   UNL     1      -9.839   6.153  70.235  1.00  0.00    -0.169 A  
ENDBRANCH  12  21
ENDBRANCH  10  11
ENDBRANCH   7  10
TORSDOF 3
ENDMDL
MODEL      165
REMARK 921   NORMALIZED FREE ENERGY PREDICTED BY IDOCK:   -2.51 KCAL/MOL
REMARK 922        TOTAL FREE ENERGY PREDICTED BY IDOCK:   -3.76 KCAL/MOL
REMARK 923 INTER-LIGAND FREE ENERGY PREDICTED BY IDOCK:   -5.59 KCAL/MOL
REMARK 924 INTRA-LIGAND FREE ENERGY PREDICTED BY IDOCK:    1.82 KCAL/MOL
REMARK 927      BINDING AFFINITY PREDICTED BY RF-SCORE:    0.00 PKD
ROOT
HETATM    1  C   UNL     1     -11.146  10.089  66.507  1.00  0.00     0.343 C  
HETATM    2  N   UNL     1     -10.672  11.093  67.458  1.00  0.00    -0.220 NA 
HETATM    3  C   UNL     1      -9.352  11.637  67.065  1.00  0.00    -0.181 C  
HETATM    4  C   UNL     1      -9.390  12.600  65.864  1.00  0.00    -0.004 C  
HETATM    5  N   UNL     1     -10.374  13.657  66.072  1.00  0.00    -0.297 N  
HETATM    6  C   UNL     1     -11.714  13.183  66.427  1.00  0.00    -0.379 C  
HETATM    7  C   UNL     1      -9.951  14.961  66.234  1.00  0.00    -0.282 C  
HETATM    8  O   UNL     1      -8.774  15.295  66.248  1.00  0.00    -0.283 OA 
HETATM    9  C   UNL     1     -11.643  12.202  67.618  1.00  0.00    -0.343 C  
ENDROOT
BRANCH   7  10
HETATM   10  O   UNL     1     -10.985  15.829  66.342  1.00  0.00    -0.273 OA 
BRANCH  10  11
HETATM   11  C   UNL     1     -10.875  16.789  67.391  1.00  0.00    -0.176 C  
HETATM   12  N   UNL     1     -10.385  16.117  68.584  1.00  0.00    -0.240 N  
HETATM   13  C   UNL     1      -9.107  16.525  68.943  1.00  0.00    -0.245 C  
HETATM   14  C   UNL     1      -9.717  17.692  67.033  1.00  0.00    -0.292 A  
HETATM   15  N   UNL     1      -9.624  18.533  65.977  1.00  0.00    -0.497 NA 
HETATM   16  C   UNL     1      -8.690  17.512  67.937  1.00  0.00    -0.247 A  
HETATM   17  O   UNL     1      -8.452  16.212  69.920  1.00  0.00     0.263 OA 
HETATM   18  C   UNL     1      -8.434  19.182  65.901  1.00  0.00     0.043 A  
HETATM   19  N   UNL     1      -7.506  18.152  67.887  1.00  0.00    -0.223 NA 
HETATM   20  C   UNL     1      -7.406  18.998  66.832  1.00  0.00    -0.210 A  
BRANCH  12  21
HETATM   21  C   UNL     1     -11.253  15.382  69.398  1.00  0.00    -0.296 A  
HETATM   22 CL   UNL     1     -14.020  13.308  72.226  1.00  0.00    -0.616 Cl 
HETATM   23  C   UNL     1     -11.801  13.425  70.687  1.00  0.00    -0.163 A  
HETATM   24  C   UNL     1     -13.212  15.334  70.632  1.00  0.00    -0.323 A  
HETATM   25  N   UNL     1     -12.404  15.987  69.761  1.00  0.00    -0.113 NA 
HETATM   26  C   UNL     1     -10.927  14.100  69.831  1.00  0.00    -0.000 A  
HETATM   27  C   UNL     1     -12.954  14.065  71.117  1.00  0.00    -0.332 A  
ENDBRANCH  12  21
ENDBRANCH  10  11
ENDBRANCH   7  10
TORSDOF 3
ENDMDL
MODEL      166
REMARK 921   NORMALIZED FREE ENERGY PREDICTED BY IDOCK:   -2.51 KCAL/MOL
REMARK 922        TOTAL FREE ENERGY PREDICTED BY IDOCK:   -3.76 KCAL/MOL
REMARK 923 INTER-LIGAND FREE ENERGY PREDICTED BY IDOCK:   -3.07 KCAL/MOL
REMARK 924 INTRA-LIGAND FREE ENERGY PREDICTED BY IDOCK:   -0.69 KCAL/MOL
REMARK 927      BINDING AFFINITY PREDICTED BY RF-SCORE:    0.00 PKD
ROOT
HETATM    1  C   UNL     1     -10.379   4.825  66.092  1.00  0.00    -0.300 C  
HETATM    2  N   UNL     1      -8.929   4.967  65.964  1.00  0.00    -0.125 NA 
HETATM    3  C   UNL     1      -8.564   6.193  65.219  1.00  0.00    -0.077 C  
HETATM    4  C   UNL     1      -8.756   7.501  66.008  1.00  0.00    -0.158 C  
HETATM    5  N   UNL     1      -8.089   7.433  67.304  1.00  0.00    -0.111 N  
HETATM    6  C   UNL     1      -8.437   6.260  68.110  1.00  0.00    -0.114 C  
HETATM    7  C   UNL     1      -6.998   8.242  67.554  1.00  0.00    -0.075 C  
HETATM    8  O   UNL     1      -6.520   9.008  66.730  1.00  0.00    -0.062 OA 
HETATM    9  C   UNL     1      -8.257   4.965  67.285  1.00  0.00    -0.106 C  
ENDROOT
BRANCH   7  10
HETATM   10  O   UNL     1      -6.540   8.113  68.822  1.00  0.00    -0.051 OA 
BRANCH  10  11
HETATM   11  C   UNL     1      -7.283   8.815  69.818  1.00  0.00    -0.051 C  
HETATM   12  N   UNL     1      -7.106   8.137  71.091  1.00  0.00    -0.054 N  
HETATM   13  C   UNL     1      -6.387   8.895  72.007  1.00  0.00    -0.045 C  
HETATM   14  C   UNL     1      -6.566  10.125  70.049  1.00  0.00    -0.117 A  
HETATM   15  N   UNL     1      -6.397  11.139  69.168  1.00  0.00    -0.057 NA 
HETATM   16  C   UNL     1      -6.036  10.147  71.322  1.00  0.00     0.068 A  
HETATM   17  O   UNL     1      -6.133   8.647  73.171  1.00  0.00    -0.093 OA 
HETATM   18  C   UNL     1      -5.667  12.172  69.661  1.00  0.00    -0.100 A  
HETATM   19  N   UNL     1      -5.318  11.165  71.835  1.00  0.00    -0.326 NA 
HETATM   20  C   UNL     1      -5.146  12.185  70.958  1.00  0.00    -0.143 A  
BRANCH  12  21
HETATM   21  C   UNL     1      -7.846   6.992  71.401  1.00  0.00    -0.095 A  
HETATM   22 CL   UNL     1     -10.094   3.193  72.085  1.00  0.00    -0.228 Cl 
HETATM   23  C   UNL     1      -9.917   5.886  71.926  1.00  0.00    -0.203 A  
HETATM   24  C   UNL     1      -7.896   4.684  71.593  1.00  0.00    -0.097 A  
HETATM   25  N   UNL     1      -7.179   5.818  71.397  1.00  0.00    -0.076 NA 
HETATM   26  C   UNL     1      -9.209   7.063  71.675  1.00  0.00    -0.144 A  
HETATM   27  C   UNL     1      -9.253   4.670  71.858  1.00  0.00    -0.137 A  
ENDBRANCH  12  21
ENDBRANCH  10  11
ENDBRANCH   7  10
TORSDOF 3
ENDMDL
MODEL      167
REMARK 921   NORMALIZED FREE ENERGY PREDICTED BY IDOCK:   -2.43 KCAL/MOL
REMARK 922        TOTAL FREE ENERGY PREDICTED BY IDOCK:   -3.66 KCAL/MOL
REMARK 923 INTER-LIGAND FREE ENERGY PREDICTED BY IDOCK:   -3.48 KCAL/MOL
REMARK 924 INTRA-LIGAND FREE ENERGY PREDICTED BY IDOCK:   -0.18 KCAL/MOL
REMARK 927      BINDING AFFINITY PREDICTED BY RF-SCORE:    0.00 PKD
ROOT
HETATM    1  C   UNL     1     -11.668  12.461  63.976  1.00  0.00    -0.420 C  
HETATM    2  N   UNL     1     -10.718  12.732  65.054  1.00  0.00    -0.287 NA 
HETATM    3  C   UNL     1     -11.396  12.841  66.365  1.00  0.00    -0.323 C  
HETATM    4  C   UNL     1     -11.880  11.499  66.948  1.00  0.00     0.215 C  
HETATM    5  N   UNL     1     -10.798  10.521  66.975  1.00  0.00    -0.255 N  
HETATM    6  C   UNL     1     -10.108  10.336  65.696  1.00  0.00    -0.271 C  
HETATM    7  C   UNL     1     -10.299  10.088  68.187  1.00  0.00    -0.194 C  
HETATM    8  O   UNL     1     -10.690  10.504  69.268  1.00  0.00    -0.204 OA 
HETATM    9  C   UNL     1      -9.656  11.699  65.124  1.00  0.00    -0.183 C  
ENDROOT
BRANCH   7  10
HETATM   10  O   UNL     1      -9.353   9.129  68.042  1.00  0.00    -0.137 OA 
BRANCH  10  11
HETATM   11  C   UNL     1      -8.524   8.907  69.182  1.00  0.00    -0.132 C  
HETATM   12  N   UNL     1      -7.688   7.746  68.926  1.00  0.00    -0.110 N  
HETATM   13  C   UNL     1      -6.342   8.070  68.808  1.00  0.00    -0.044 C  
HETATM   14  C   UNL     1      -7.514  10.030  69.208  1.00  0.00    -0.103 A  
HETATM   15  N   UNL     1      -7.754  11.350  69.386  1.00  0.00     0.065 NA 
HETATM   16  C   UNL     1      -6.251   9.527  68.972  1.00  0.00    -0.042 A  
HETATM   17  O   UNL     1      -5.387   7.327  68.668  1.00  0.00    -0.019 OA 
HETATM   18  C   UNL     1      -6.638  12.121  69.316  1.00  0.00    -0.104 A  
HETATM   19  N   UNL     1      -5.130  10.271  68.909  1.00  0.00    -0.035 NA 
HETATM   20  C   UNL     1      -5.363  11.594  69.087  1.00  0.00    -0.047 A  
BRANCH  12  21
HETATM   21  C   UNL     1      -8.192   6.451  69.087  1.00  0.00    -0.111 A  
HETATM   22 CL   UNL     1      -9.636   2.306  69.915  1.00  0.00    -0.113 Cl 
HETATM   23  C   UNL     1      -8.446   4.171  68.362  1.00  0.00    -0.104 A  
HETATM   24  C   UNL     1      -9.290   4.932  70.447  1.00  0.00    -0.151 A  
HETATM   25  N   UNL     1      -8.881   6.204  70.222  1.00  0.00    -0.147 NA 
HETATM   26  C   UNL     1      -7.969   5.464  68.132  1.00  0.00    -0.095 A  
HETATM   27  C   UNL     1      -9.097   3.893  69.555  1.00  0.00    -0.130 A  
ENDBRANCH  12  21
ENDBRANCH  10  11
ENDBRANCH   7  10
TORSDOF 3
ENDMDL
MODEL      168
REMARK 921   NORMALIZED FREE ENERGY PREDICTED BY IDOCK:   -2.42 KCAL/MOL
REMARK 922        TOTAL FREE ENERGY PREDICTED BY IDOCK:   -3.65 KCAL/MOL
REMARK 923 INTER-LIGAND FREE ENERGY PREDICTED BY IDOCK:   -2.82 KCAL/MOL
REMARK 924 INTRA-LIGAND FREE ENERGY PREDICTED BY IDOCK:   -0.83 KCAL/MOL
REMARK 927      BINDING AFFINITY PREDICTED BY RF-SCORE:    0.00 PKD
ROOT
HETATM    1  C   UNL     1     -12.594  11.394  71.810  1.00  0.00    -0.136 C  
HETATM    2  N   UNL     1     -12.873  10.779  70.513  1.00  0.00    -0.300 NA 
HETATM    3  C   UNL     1     -12.394  11.624  69.395  1.00  0.00    -0.068 C  
HETATM    4  C   UNL     1     -10.865  11.634  69.211  1.00  0.00    -0.152 C  
HETATM    5  N   UNL     1     -10.339  10.276  69.131  1.00  0.00    -0.208 N  
HETATM    6  C   UNL     1     -10.744   9.397  70.230  1.00  0.00    -0.253 C  
HETATM    7  C   UNL     1      -9.794   9.823  67.945  1.00  0.00    -0.149 C  
HETATM    8  O   UNL     1      -9.752  10.490  66.921  1.00  0.00    -0.171 OA 
HETATM    9  C   UNL     1     -12.280   9.424  70.407  1.00  0.00     0.114 C  
ENDROOT
BRANCH   7  10
HETATM   10  O   UNL     1      -9.286   8.573  68.056  1.00  0.00    -0.137 OA 
BRANCH  10  11
HETATM   11  C   UNL     1      -8.209   8.267  67.171  1.00  0.00    -0.119 C  
HETATM   12  N   UNL     1      -6.956   8.514  67.865  1.00  0.00    -0.073 N  
HETATM   13  C   UNL     1      -6.240   7.349  68.109  1.00  0.00    -0.043 C  
HETATM   14  C   UNL     1      -8.196   6.765  67.007  1.00  0.00    -0.113 A  
HETATM   15  N   UNL     1      -9.150   5.989  66.443  1.00  0.00    -0.147 NA 
HETATM   16  C   UNL     1      -7.050   6.246  67.575  1.00  0.00    -0.073 A  
HETATM   17  O   UNL     1      -5.133   7.222  68.599  1.00  0.00    -0.016 OA 
HETATM   18  C   UNL     1      -8.866   4.662  66.483  1.00  0.00    -0.111 A  
HETATM   19  N   UNL     1      -6.743   4.935  67.617  1.00  0.00    -0.053 NA 
HETATM   20  C   UNL     1      -7.695   4.151  67.052  1.00  0.00    -0.092 A  
BRANCH  12  21
HETATM   21  C   UNL     1      -6.445   9.811  67.979  1.00  0.00    -0.056 A  
HETATM   22 CL   UNL     1      -5.142  14.061  68.415  1.00  0.00    -0.096 Cl 
HETATM   23  C   UNL     1      -5.270  11.711  67.085  1.00  0.00    -0.096 A  
HETATM   24  C   UNL     1      -6.318  11.765  69.216  1.00  0.00    -0.103 A  
HETATM   25  N   UNL     1      -6.715  10.472  69.124  1.00  0.00    -0.062 NA 
HETATM   26  C   UNL     1      -5.715  10.394  66.947  1.00  0.00    -0.047 A  
HETATM   27  C   UNL     1      -5.601  12.420  68.231  1.00  0.00    -0.057 A  
ENDBRANCH  12  21
ENDBRANCH  10  11
ENDBRANCH   7  10
TORSDOF 3
ENDMDL
MODEL      169
REMARK 921   NORMALIZED FREE ENERGY PREDICTED BY IDOCK:   -2.41 KCAL/MOL
REMARK 922        TOTAL FREE ENERGY PREDICTED BY IDOCK:   -3.64 KCAL/MOL
REMARK 923 INTER-LIGAND FREE ENERGY PREDICTED BY IDOCK:   -6.44 KCAL/MOL
REMARK 924 INTRA-LIGAND FREE ENERGY PREDICTED BY IDOCK:    2.80 KCAL/MOL
REMARK 927      BINDING AFFINITY PREDICTED BY RF-SCORE:    0.00 PKD
ROOT
HETATM    1  C   UNL     1      -8.113   8.189  67.399  1.00  0.00    -0.122 C  
HETATM    2  N   UNL     1      -8.773   8.958  68.453  1.00  0.00    -0.134 NA 
HETATM    3  C   UNL     1      -7.968  10.134  68.856  1.00  0.00    -0.110 C  
HETATM    4  C   UNL     1      -7.963  11.286  67.834  1.00  0.00    -0.118 C  
HETATM    5  N   UNL     1      -9.322  11.660  67.460  1.00  0.00    -0.166 N  
HETATM    6  C   UNL     1     -10.162  10.546  67.013  1.00  0.00    -0.226 C  
HETATM    7  C   UNL     1      -9.816  12.896  67.827  1.00  0.00    -0.221 C  
HETATM    8  O   UNL     1      -9.185  13.707  68.491  1.00  0.00    -0.190 OA 
HETATM    9  C   UNL     1     -10.130   9.397  68.046  1.00  0.00    -0.191 C  
ENDROOT
BRANCH   7  10
HETATM   10  O   UNL     1     -11.061  13.119  67.343  1.00  0.00    -0.261 OA 
BRANCH  10  11
HETATM   11  C   UNL     1     -11.844  14.062  68.073  1.00  0.00    -0.368 C  
HETATM   12  N   UNL     1     -11.496  13.963  69.480  1.00  0.00    -0.275 N  
HETATM   13  C   UNL     1     -10.850  15.098  69.954  1.00  0.00    -0.270 C  
HETATM   14  C   UNL     1     -11.324  15.433  67.708  1.00  0.00    -0.306 A  
HETATM   15  N   UNL     1     -11.361  16.033  66.495  1.00  0.00     0.158 NA 
HETATM   16  C   UNL     1     -10.732  16.014  68.811  1.00  0.00    -0.282 A  
HETATM   17  O   UNL     1     -10.497  15.358  71.090  1.00  0.00    -0.014 OA 
HETATM   18  C   UNL     1     -10.770  17.255  66.475  1.00  0.00    -0.078 A  
HETATM   19  N   UNL     1     -10.150  17.229  68.816  1.00  0.00    -0.320 NA 
HETATM   20  C   UNL     1     -10.185  17.836  67.605  1.00  0.00    -0.358 A  
BRANCH  12  21
HETATM   21  C   UNL     1     -12.034  12.951  70.281  1.00  0.00    -0.283 A  
HETATM   22 CL   UNL     1     -13.892   9.578  72.545  1.00  0.00    -0.403 Cl 
HETATM   23  C   UNL     1     -13.412  12.202  72.106  1.00  0.00    -0.383 A  
HETATM   24  C   UNL     1     -12.335  10.682  70.634  1.00  0.00    -0.369 A  
HETATM   25  N   UNL     1     -11.741  11.680  69.935  1.00  0.00    -0.331 NA 
HETATM   26  C   UNL     1     -12.854  13.247  71.367  1.00  0.00    -0.411 A  
HETATM   27  C   UNL     1     -13.170  10.893  71.716  1.00  0.00    -0.408 A  
ENDBRANCH  12  21
ENDBRANCH  10  11
ENDBRANCH   7  10
TORSDOF 3
ENDMDL
MODEL      170
REMARK 921   NORMALIZED FREE ENERGY PREDICTED BY IDOCK:   -2.41 KCAL/MOL
REMARK 922        TOTAL FREE ENERGY PREDICTED BY IDOCK:   -3.63 KCAL/MOL
REMARK 923 INTER-LIGAND FREE ENERGY PREDICTED BY IDOCK:   -4.67 KCAL/MOL
REMARK 924 INTRA-LIGAND FREE ENERGY PREDICTED BY IDOCK:    1.03 KCAL/MOL
REMARK 927      BINDING AFFINITY PREDICTED BY RF-SCORE:    0.00 PKD
ROOT
HETATM    1  C   UNL     1      -6.266  14.009  68.968  1.00  0.00    -0.092 C  
HETATM    2  N   UNL     1      -5.851  12.779  68.293  1.00  0.00    -0.065 NA 
HETATM    3  C   UNL     1      -5.691  11.660  69.248  1.00  0.00    -0.057 C  
HETATM    4  C   UNL     1      -7.015  11.080  69.781  1.00  0.00    -0.090 C  
HETATM    5  N   UNL     1      -7.913  10.735  68.684  1.00  0.00    -0.124 N  
HETATM    6  C   UNL     1      -8.145  11.814  67.721  1.00  0.00    -0.143 C  
HETATM    7  C   UNL     1      -8.220   9.410  68.443  1.00  0.00    -0.117 C  
HETATM    8  O   UNL     1      -7.752   8.479  69.083  1.00  0.00    -0.088 OA 
HETATM    9  C   UNL     1      -6.801  12.392  67.222  1.00  0.00    -0.127 C  
ENDROOT
BRANCH   7  10
HETATM   10  O   UNL     1      -9.121   9.264  67.442  1.00  0.00    -0.126 OA 
BRANCH  10  11
HETATM   11  C   UNL     1     -10.394   8.750  67.831  1.00  0.00    -0.224 C  
HETATM   12  N   UNL     1     -10.185   7.631  68.735  1.00  0.00    -0.196 N  
HETATM   13  C   UNL     1     -10.612   7.899  70.029  1.00  0.00    -0.242 C  
HETATM   14  C   UNL     1     -11.019   9.784  68.739  1.00  0.00    -0.148 A  
HETATM   15  N   UNL     1     -11.398  11.042  68.417  1.00  0.00    -0.270 NA 
HETATM   16  C   UNL     1     -11.122   9.277  70.018  1.00  0.00    -0.205 A  
HETATM   17  O   UNL     1     -10.644   7.156  70.992  1.00  0.00    -0.219 OA 
HETATM   18  C   UNL     1     -11.891  11.748  69.467  1.00  0.00    -0.337 A  
HETATM   19  N   UNL     1     -11.618   9.954  71.072  1.00  0.00    -0.359 NA 
HETATM   20  C   UNL     1     -12.001  11.217  70.756  1.00  0.00    -0.312 A  
BRANCH  12  21
HETATM   21  C   UNL     1      -9.865   6.362  68.240  1.00  0.00    -0.128 A  
HETATM   22 CL   UNL     1      -9.194   2.244  66.646  1.00  0.00    -0.083 Cl 
HETATM   23  C   UNL     1      -8.766   4.230  68.428  1.00  0.00    -0.118 A  
HETATM   24  C   UNL     1     -10.229   4.739  66.629  1.00  0.00    -0.238 A  
HETATM   25  N   UNL     1     -10.443   6.001  67.074  1.00  0.00    -0.236 NA 
HETATM   26  C   UNL     1      -9.013   5.509  68.935  1.00  0.00    -0.122 A  
HETATM   27  C   UNL     1      -9.407   3.828  67.266  1.00  0.00    -0.197 A  
ENDBRANCH  12  21
ENDBRANCH  10  11
ENDBRANCH   7  10
TORSDOF 3
ENDMDL
MODEL      171
REMARK 921   NORMALIZED FREE ENERGY PREDICTED BY IDOCK:   -2.10 KCAL/MOL
REMARK 922        TOTAL FREE ENERGY PREDICTED BY IDOCK:   -3.27 KCAL/MOL
REMARK 923 INTER-LIGAND FREE ENERGY PREDICTED BY IDOCK:   -5.64 KCAL/MOL
REMARK 924 INTRA-LIGAND FREE ENERGY PREDICTED BY IDOCK:    2.36 KCAL/MOL
REMARK 927      BINDING AFFINITY PREDICTED BY RF-SCORE:    0.00 PKD
ROOT
HETATM    1  C   UNL     1      -5.162  12.609  70.563  1.00  0.00    -0.127 C  
HETATM    2  N   UNL     1      -6.343  13.371  70.156  1.00  0.00    -0.052 NA 
HETATM    3  C   UNL     1      -6.289  14.766  70.650  1.00  0.00    -0.029 C  
HETATM    4  C   UNL     1      -5.286  15.668  69.907  1.00  0.00    -0.115 C  
HETATM    5  N   UNL     1      -5.498  15.609  68.464  1.00  0.00    -0.099 N  
HETATM    6  C   UNL     1      -5.524  14.255  67.905  1.00  0.00    -0.078 C  
HETATM    7  C   UNL     1      -5.957  16.726  67.795  1.00  0.00    -0.136 C  
HETATM    8  O   UNL     1      -6.236  17.780  68.349  1.00  0.00    -0.172 OA 
HETATM    9  C   UNL     1      -6.520  13.367  68.684  1.00  0.00    -0.091 C  
ENDROOT
BRANCH   7  10
HETATM   10  O   UNL     1      -6.030  16.531  66.457  1.00  0.00    -0.299 OA 
BRANCH  10  11
HETATM   11  C   UNL     1      -7.078  17.234  65.790  1.00  0.00     0.188 C  
HETATM   12  N   UNL     1      -8.331  16.949  66.469  1.00  0.00    -0.253 N  
HETATM   13  C   UNL     1      -8.860  18.063  67.109  1.00  0.00    -0.248 C  
HETATM   14  C   UNL     1      -6.876  18.701  66.091  1.00  0.00    -0.244 A  
HETATM   15  N   UNL     1      -5.836  19.483  65.718  1.00  0.00    -0.165 NA 
HETATM   16  C   UNL     1      -7.914  19.163  66.875  1.00  0.00    -0.259 A  
HETATM   17  O   UNL     1      -9.920  18.174  67.697  1.00  0.00    -0.310 OA 
HETATM   18  C   UNL     1      -5.921  20.757  66.180  1.00  0.00    -0.230 A  
HETATM   19  N   UNL     1      -8.023  20.424  67.335  1.00  0.00    -0.327 NA 
HETATM   20  C   UNL     1      -6.985  21.214  66.964  1.00  0.00    -0.247 A  
BRANCH  12  21
HETATM   21  C   UNL     1      -9.023  15.760  66.223  1.00  0.00    -0.345 A  
HETATM   22 CL   UNL     1     -11.536  12.145  65.461  1.00  0.00    -0.397 Cl 
HETATM   23  C   UNL     1      -9.583  13.483  66.767  1.00  0.00    -0.268 A  
HETATM   24  C   UNL     1     -10.658  14.659  65.006  1.00  0.00    -0.439 A  
HETATM   25  N   UNL     1      -9.902  15.768  65.198  1.00  0.00    -0.341 NA 
HETATM   26  C   UNL     1      -8.830  14.632  67.017  1.00  0.00    -0.262 A  
HETATM   27  C   UNL     1     -10.535  13.505  65.758  1.00  0.00    -0.291 A  
ENDBRANCH  12  21
ENDBRANCH  10  11
ENDBRANCH   7  10
TORSDOF 3
ENDMDL
MODEL      172
REMARK 921   NORMALIZED FREE ENERGY PREDICTED BY IDOCK:   -1.87 KCAL/MOL
REMARK 922        TOTAL FREE ENERGY PREDICTED BY IDOCK:   -3.00 KCAL/MOL
REMARK 923 INTER-LIGAND FREE ENERGY PREDICTED BY IDOCK:   -4.73 KCAL/MOL
REMARK 924 INTRA-LIGAND FREE ENERGY PREDICTED BY IDOCK:    1.73 KCAL/MOL
REMARK 927      BINDING AFFINITY PREDICTED BY RF-SCORE:    0.00 PKD
ROOT
HETATM    1  C   UNL     1     -14.036  15.211  71.012  1.00  0.00    -0.303 C  
HETATM    2  N   UNL     1     -12.764  14.858  71.641  1.00  0.00    -0.310 NA 
HETATM    3  C   UNL     1     -12.295  13.521  71.212  1.00  0.00    -0.235 C  
HETATM    4  C   UNL     1     -11.751  13.466  69.772  1.00  0.00    -0.286 C  
HETATM    5  N   UNL     1     -10.737  14.493  69.557  1.00  0.00    -0.193 N  
HETATM    6  C   UNL     1     -11.152  15.849  69.926  1.00  0.00    -0.343 C  
HETATM    7  C   UNL     1      -9.425  14.122  69.340  1.00  0.00     0.439 C  
HETATM    8  O   UNL     1      -9.038  12.962  69.350  1.00  0.00     0.818 OA 
HETATM    9  C   UNL     1     -11.715  15.869  71.365  1.00  0.00    -0.467 C  
ENDROOT
BRANCH   7  10
HETATM   10  O   UNL     1      -8.624  15.185  69.085  1.00  0.00    -0.201 OA 
BRANCH  10  11
HETATM   11  C   UNL     1      -8.463  15.515  67.707  1.00  0.00    -0.152 C  
HETATM   12  N   UNL     1      -9.550  14.911  66.955  1.00  0.00    -0.231 N  
HETATM   13  C   UNL     1     -10.420  15.852  66.419  1.00  0.00    -0.308 C  
HETATM   14  C   UNL     1      -8.763  16.990  67.577  1.00  0.00    -0.210 A  
HETATM   15  N   UNL     1      -8.073  18.023  68.115  1.00  0.00    -0.264 NA 
HETATM   16  C   UNL     1      -9.915  17.167  66.838  1.00  0.00    -0.288 A  
HETATM   17  O   UNL     1     -11.376  15.678  65.687  1.00  0.00    -0.168 OA 
HETATM   18  C   UNL     1      -8.619  19.238  67.853  1.00  0.00    -0.312 A  
HETATM   19  N   UNL     1     -10.468  18.363  66.557  1.00  0.00    -0.392 NA 
HETATM   20  C   UNL     1      -9.782  19.402  67.093  1.00  0.00    -0.333 A  
BRANCH  12  21
HETATM   21  C   UNL     1      -9.509  13.560  66.598  1.00  0.00    -0.265 A  
HETATM   22 CL   UNL     1      -9.153   9.333  65.196  1.00  0.00    -0.269 Cl 
HETATM   23  C   UNL     1     -10.578  11.515  65.915  1.00  0.00    -0.318 A  
HETATM   24  C   UNL     1      -8.216  11.712  66.070  1.00  0.00     0.168 A  
HETATM   25  N   UNL     1      -8.287  12.991  66.514  1.00  0.00     0.189 NA 
HETATM   26  C   UNL     1     -10.673  12.848  66.320  1.00  0.00    -0.292 A  
HETATM   27  C   UNL     1      -9.323  10.943  65.761  1.00  0.00    -0.203 A  
ENDBRANCH  12  21
ENDBRANCH  10  11
ENDBRANCH   7  10
TORSDOF 3
ENDMDL
MODEL      173
REMARK 921   NORMALIZED FREE ENERGY PREDICTED BY IDOCK:   -1.60 KCAL/MOL
REMARK 922        TOTAL FREE ENERGY PREDICTED BY IDOCK:   -2.69 KCAL/MOL
REMARK 923 INTER-LIGAND FREE ENERGY PREDICTED BY IDOCK:   -4.64 KCAL/MOL
REMARK 924 INTRA-LIGAND FREE ENERGY PREDICTED BY IDOCK:    1.95 KCAL/MOL
REMARK 927      BINDING AFFINITY PREDICTED BY RF-SCORE:    0.00 PKD
ROOT
HETATM    1  C   UNL     1      -7.001  14.130  67.533  1.00  0.00    -0.152 C  
HETATM    2  N   UNL     1      -6.124  13.022  67.910  1.00  0.00    -0.115 NA 
HETATM    3  C   UNL     1      -6.551  12.397  69.183  1.00  0.00    -0.099 C  
HETATM    4  C   UNL     1      -7.820  11.531  69.074  1.00  0.00    -0.004 C  
HETATM    5  N   UNL     1      -7.694  10.550  68.002  1.00  0.00    -0.092 N  
HETATM    6  C   UNL     1      -7.310  11.110  66.704  1.00  0.00    -0.145 C  
HETATM    7  C   UNL     1      -7.627   9.206  68.310  1.00  0.00    -0.083 C  
HETATM    8  O   UNL     1      -7.634   8.772  69.454  1.00  0.00    -0.084 OA 
HETATM    9  C   UNL     1      -6.049  11.992  66.847  1.00  0.00    -0.075 C  
ENDROOT
BRANCH   7  10
HETATM   10  O   UNL     1      -7.587   8.425  67.204  1.00  0.00    -0.091 OA 
BRANCH  10  11
HETATM   11  C   UNL     1      -8.855   8.072  66.655  1.00  0.00    -0.145 C  
HETATM   12  N   UNL     1      -9.895   8.731  67.428  1.00  0.00    -0.180 N  
HETATM   13  C   UNL     1     -10.568   9.704  66.701  1.00  0.00    -0.103 C  
HETATM   14  C   UNL     1      -8.958   8.769  65.318  1.00  0.00    -0.133 A  
HETATM   15  N   UNL     1      -8.196   8.561  64.220  1.00  0.00    -0.161 NA 
HETATM   16  C   UNL     1      -9.949   9.728  65.369  1.00  0.00    -0.232 A  
HETATM   17  O   UNL     1     -11.527  10.377  67.032  1.00  0.00    -0.189 OA 
HETATM   18  C   UNL     1      -8.506   9.378  63.180  1.00  0.00    -0.205 A  
HETATM   19  N   UNL     1     -10.280  10.541  64.348  1.00  0.00    -0.330 NA 
HETATM   20  C   UNL     1      -9.521  10.338  63.243  1.00  0.00    -0.300 A  
BRANCH  12  21
HETATM   21  C   UNL     1     -10.319   8.204  68.652  1.00  0.00    -0.200 A  
HETATM   22 CL   UNL     1     -11.878   6.293  72.377  1.00  0.00    -0.310 Cl 
HETATM   23  C   UNL     1     -11.338   8.436  70.820  1.00  0.00    -0.290 A  
HETATM   24  C   UNL     1     -10.680   6.324  69.956  1.00  0.00    -0.285 A  
HETATM   25  N   UNL     1     -10.181   6.871  68.820  1.00  0.00    -0.167 NA 
HETATM   26  C   UNL     1     -10.879   9.016  69.635  1.00  0.00    -0.196 A  
HETATM   27  C   UNL     1     -11.261   7.059  70.973  1.00  0.00    -0.274 A  
ENDBRANCH  12  21
ENDBRANCH  10  11
ENDBRANCH   7  10
TORSDOF 3
ENDMDL
MODEL      174
REMARK 921   NORMALIZED FREE ENERGY PREDICTED BY IDOCK:   -1.54 KCAL/MOL
REMARK 922        TOTAL FREE ENERGY PREDICTED BY IDOCK:   -2.61 KCAL/MOL
REMARK 923 INTER-LIGAND FREE ENERGY PREDICTED BY IDOCK:   -4.64 KCAL/MOL
REMARK 924 INTRA-LIGAND FREE ENERGY PREDICTED BY IDOCK:    2.02 KCAL/MOL
REMARK 927      BINDING AFFINITY PREDICTED BY RF-SCORE:    0.00 PKD
ROOT
HETATM    1  C   UNL     1      -7.681   3.213  66.457  1.00  0.00    -0.077 C  
HETATM    2  N   UNL     1      -7.632   4.251  67.485  1.00  0.00    -0.073 NA 
HETATM    3  C   UNL     1      -6.780   5.390  67.071  1.00  0.00    -0.062 C  
HETATM    4  C   UNL     1      -7.406   6.297  65.996  1.00  0.00    -0.080 C  
HETATM    5  N   UNL     1      -8.741   6.732  66.391  1.00  0.00    -0.133 N  
HETATM    6  C   UNL     1      -9.648   5.649  66.776  1.00  0.00    -0.146 C  
HETATM    7  C   UNL     1      -8.969   8.064  66.675  1.00  0.00    -0.150 C  
HETATM    8  O   UNL     1      -8.097   8.921  66.650  1.00  0.00    -0.105 OA 
HETATM    9  C   UNL     1      -8.986   4.741  67.838  1.00  0.00    -0.111 C  
ENDROOT
BRANCH   7  10
HETATM   10  O   UNL     1     -10.271   8.317  66.952  1.00  0.00    -0.268 OA 
BRANCH  10  11
HETATM   11  C   UNL     1     -10.505   9.292  67.967  1.00  0.00    -0.223 C  
HETATM   12  N   UNL     1      -9.797   8.887  69.170  1.00  0.00    -0.175 N  
HETATM   13  C   UNL     1      -8.749   9.741  69.488  1.00  0.00    -0.185 C  
HETATM   14  C   UNL     1      -9.752  10.536  67.554  1.00  0.00    -0.166 A  
HETATM   15  N   UNL     1      -9.977  11.313  66.469  1.00  0.00    -0.206 NA 
HETATM   16  C   UNL     1      -8.722  10.772  68.442  1.00  0.00    -0.142 A  
HETATM   17  O   UNL     1      -8.017   9.722  70.461  1.00  0.00    -0.220 OA 
HETATM   18  C   UNL     1      -9.100  12.343  66.347  1.00  0.00    -0.149 A  
HETATM   19  N   UNL     1      -7.848  11.792  68.346  1.00  0.00    -0.135 NA 
HETATM   20  C   UNL     1      -8.068  12.576  67.261  1.00  0.00    -0.179 A  
BRANCH  12  21
HETATM   21  C   UNL     1     -10.336   7.922  70.026  1.00  0.00    -0.221 A  
HETATM   22 CL   UNL     1     -12.064   5.086  73.014  1.00  0.00    -0.112 Cl 
HETATM   23  C   UNL     1     -10.240   5.796  71.150  1.00  0.00    -0.275 A  
HETATM   24  C   UNL     1     -11.981   7.359  71.557  1.00  0.00    -0.307 A  
HETATM   25  N   UNL     1     -11.494   8.236  70.645  1.00  0.00    -0.259 NA 
HETATM   26  C   UNL     1      -9.691   6.707  70.245  1.00  0.00    -0.182 A  
HETATM   27  C   UNL     1     -11.393   6.139  71.840  1.00  0.00    -0.296 A  
ENDBRANCH  12  21
ENDBRANCH  10  11
ENDBRANCH   7  10
TORSDOF 3
ENDMDL
MODEL      175
REMARK 921   NORMALIZED FREE ENERGY PREDICTED BY IDOCK:   -1.48 KCAL/MOL
REMARK 922        TOTAL FREE ENERGY PREDICTED BY IDOCK:   -2.54 KCAL/MOL
REMARK 923 INTER-LIGAND FREE ENERGY PREDICTED BY IDOCK:   -5.17 KCAL/MOL
REMARK 924 INTRA-LIGAND FREE ENERGY PREDICTED BY IDOCK:    2.63 KCAL/MOL
REMARK 927      BINDING AFFINITY PREDICTED BY RF-SCORE:    0.00 PKD
ROOT
HETATM    1  C   UNL     1     -11.427  15.782  65.258  1.00  0.00     0.024 C  
HETATM    2  N   UNL     1     -10.174  16.535  65.214  1.00  0.00    -0.596 NA 
HETATM    3  C   UNL     1     -10.376  17.954  65.584  1.00  0.00    -0.059 C  
HETATM    4  C   UNL     1     -10.624  18.195  67.085  1.00  0.00    -0.344 C  
HETATM    5  N   UNL     1      -9.586  17.565  67.893  1.00  0.00    -0.270 N  
HETATM    6  C   UNL     1      -9.361  16.147  67.604  1.00  0.00    -0.214 C  
HETATM    7  C   UNL     1      -8.706  18.353  68.609  1.00  0.00    -0.283 C  
HETATM    8  O   UNL     1      -8.717  19.576  68.584  1.00  0.00    -0.364 OA 
HETATM    9  C   UNL     1      -9.139  15.933  66.090  1.00  0.00    -0.350 C  
ENDROOT
BRANCH   7  10
HETATM   10  O   UNL     1      -7.854  17.619  69.364  1.00  0.00     0.041 OA 
BRANCH  10  11
HETATM   11  C   UNL     1      -6.470  17.769  69.049  1.00  0.00    -0.233 C  
HETATM   12  N   UNL     1      -6.122  16.801  68.022  1.00  0.00    -0.128 N  
HETATM   13  C   UNL     1      -5.805  17.397  66.808  1.00  0.00    -0.186 C  
HETATM   14  C   UNL     1      -6.332  19.081  68.313  1.00  0.00    -0.225 A  
HETATM   15  N   UNL     1      -6.566  20.324  68.795  1.00  0.00    -0.301 NA 
HETATM   16  C   UNL     1      -5.961  18.845  67.005  1.00  0.00    -0.159 A  
HETATM   17  O   UNL     1      -5.406  16.877  65.783  1.00  0.00    -0.007 OA 
HETATM   18  C   UNL     1      -6.394  21.306  67.873  1.00  0.00    -0.223 A  
HETATM   19  N   UNL     1      -5.775  19.803  66.078  1.00  0.00    -0.162 NA 
HETATM   20  C   UNL     1      -6.007  21.052  66.553  1.00  0.00    -0.269 A  
BRANCH  12  21
HETATM   21  C   UNL     1      -5.864  15.467  68.354  1.00  0.00    -0.109 A  
HETATM   22 CL   UNL     1      -5.373  11.132  69.314  1.00  0.00    -0.041 Cl 
HETATM   23  C   UNL     1      -5.219  13.761  69.923  1.00  0.00    -0.094 A  
HETATM   24  C   UNL     1      -5.955  13.239  67.726  1.00  0.00    -0.145 A  
HETATM   25  N   UNL     1      -6.099  14.546  67.395  1.00  0.00    -0.314 NA 
HETATM   26  C   UNL     1      -5.411  15.111  69.621  1.00  0.00    -0.094 A  
HETATM   27  C   UNL     1      -5.522  12.804  68.966  1.00  0.00    -0.068 A  
ENDBRANCH  12  21
ENDBRANCH  10  11
ENDBRANCH   7  10
TORSDOF 3
ENDMDL
MODEL      176
REMARK 921   NORMALIZED FREE ENERGY PREDICTED BY IDOCK:   -1.29 KCAL/MOL
REMARK 922        TOTAL FREE ENERGY PREDICTED BY IDOCK:   -2.32 KCAL/MOL
REMARK 923 INTER-LIGAND FREE ENERGY PREDICTED BY IDOCK:   -3.20 KCAL/MOL
REMARK 924 INTRA-LIGAND FREE ENERGY PREDICTED BY IDOCK:    0.88 KCAL/MOL
REMARK 927      BINDING AFFINITY PREDICTED BY RF-SCORE:    0.00 PKD
ROOT
HETATM    1  C   UNL     1      -5.790   9.194  72.102  1.00  0.00    -0.048 C  
HETATM    2  N   UNL     1      -6.521   8.053  71.552  1.00  0.00    -0.039 NA 
HETATM    3  C   UNL     1      -7.980   8.181  71.773  1.00  0.00    -0.121 C  
HETATM    4  C   UNL     1      -8.672   9.226  70.879  1.00  0.00    -0.173 C  
HETATM    5  N   UNL     1      -8.352   9.004  69.473  1.00  0.00    -0.112 N  
HETATM    6  C   UNL     1      -6.920   8.906  69.179  1.00  0.00    -0.059 C  
HETATM    7  C   UNL     1      -9.345   8.602  68.602  1.00  0.00    -0.142 C  
HETATM    8  O   UNL     1     -10.498   8.381  68.945  1.00  0.00    -0.218 OA 
HETATM    9  C   UNL     1      -6.248   7.869  70.107  1.00  0.00    -0.033 C  
ENDROOT
BRANCH   7  10
HETATM   10  O   UNL     1      -8.905   8.512  67.324  1.00  0.00    -0.128 OA 
BRANCH  10  11
HETATM   11  C   UNL     1      -8.060   7.398  67.042  1.00  0.00    -0.113 C  
HETATM   12  N   UNL     1      -8.833   6.177  67.205  1.00  0.00    -0.108 N  
HETATM   13  C   UNL     1      -9.037   5.509  66.005  1.00  0.00    -0.156 C  
HETATM   14  C   UNL     1      -7.798   7.417  65.555  1.00  0.00    -0.115 A  
HETATM   15  N   UNL     1      -7.134   8.360  64.846  1.00  0.00    -0.078 NA 
HETATM   16  C   UNL     1      -8.390   6.318  64.964  1.00  0.00    -0.099 A  
HETATM   17  O   UNL     1      -9.575   4.434  65.812  1.00  0.00    -0.157 OA 
HETATM   18  C   UNL     1      -7.102   8.115  63.511  1.00  0.00    -0.086 A  
HETATM   19  N   UNL     1      -8.361   6.051  63.644  1.00  0.00    -0.014 NA 
HETATM   20  C   UNL     1      -7.696   6.991  62.929  1.00  0.00    -0.107 A  
BRANCH  12  21
HETATM   21  C   UNL     1      -9.059   5.638  68.475  1.00  0.00    -0.114 A  
HETATM   22 CL   UNL     1      -9.590   3.633  72.432  1.00  0.00    -0.188 Cl 
HETATM   23  C   UNL     1     -10.528   4.878  70.223  1.00  0.00    -0.158 A  
HETATM   24  C   UNL     1      -8.169   4.647  70.370  1.00  0.00    -0.075 A  
HETATM   25  N   UNL     1      -7.970   5.267  69.181  1.00  0.00    -0.088 NA 
HETATM   26  C   UNL     1     -10.349   5.471  68.971  1.00  0.00    -0.304 A  
HETATM   27  C   UNL     1      -9.417   4.433  70.925  1.00  0.00    -0.171 A  
ENDBRANCH  12  21
ENDBRANCH  10  11
ENDBRANCH   7  10
TORSDOF 3
ENDMDL
MODEL      177
REMARK 921   NORMALIZED FREE ENERGY PREDICTED BY IDOCK:   -1.14 KCAL/MOL
REMARK 922        TOTAL FREE ENERGY PREDICTED BY IDOCK:   -2.14 KCAL/MOL
REMARK 923 INTER-LIGAND FREE ENERGY PREDICTED BY IDOCK:   -3.83 KCAL/MOL
REMARK 924 INTRA-LIGAND FREE ENERGY PREDICTED BY IDOCK:    1.69 KCAL/MOL
REMARK 927      BINDING AFFINITY PREDICTED BY RF-SCORE:    0.00 PKD
ROOT
HETATM    1  C   UNL     1      -5.906   6.689  65.982  1.00  0.00    -0.026 C  
HETATM    2  N   UNL     1      -5.351   7.778  66.784  1.00  0.00    -0.027 NA 
HETATM    3  C   UNL     1      -5.641   9.101  66.185  1.00  0.00    -0.048 C  
HETATM    4  C   UNL     1      -7.104   9.560  66.331  1.00  0.00    -0.088 C  
HETATM    5  N   UNL     1      -7.539   9.486  67.721  1.00  0.00    -0.087 N  
HETATM    6  C   UNL     1      -7.315   8.189  68.363  1.00  0.00    -0.094 C  
HETATM    7  C   UNL     1      -7.821  10.648  68.412  1.00  0.00    -0.113 C  
HETATM    8  O   UNL     1      -7.694  11.767  67.935  1.00  0.00    -0.110 OA 
HETATM    9  C   UNL     1      -5.847   7.742  68.181  1.00  0.00    -0.040 C  
ENDROOT
BRANCH   7  10
HETATM   10  O   UNL     1      -8.281  10.406  69.662  1.00  0.00    -0.155 OA 
BRANCH  10  11
HETATM   11  C   UNL     1      -9.697  10.269  69.780  1.00  0.00    -0.144 C  
HETATM   12  N   UNL     1     -10.258  10.113  68.448  1.00  0.00    -0.162 N  
HETATM   13  C   UNL     1     -10.797   8.850  68.237  1.00  0.00     0.007 C  
HETATM   14  C   UNL     1      -9.951   8.913  70.396  1.00  0.00    -0.194 A  
HETATM   15  N   UNL     1      -9.603   8.492  71.634  1.00  0.00    -0.223 NA 
HETATM   16  C   UNL     1     -10.577   8.094  69.478  1.00  0.00    -0.213 A  
HETATM   17  O   UNL     1     -11.400   8.430  67.267  1.00  0.00     0.511 OA 
HETATM   18  C   UNL     1      -9.934   7.198  71.883  1.00  0.00    -0.167 A  
HETATM   19  N   UNL     1     -10.924   6.813  69.706  1.00  0.00    -0.276 NA 
HETATM   20  C   UNL     1     -10.579   6.385  70.945  1.00  0.00    -0.236 A  
BRANCH  12  21
HETATM   21  C   UNL     1     -10.471  11.225  67.628  1.00  0.00    -0.193 A  
HETATM   22 CL   UNL     1     -10.828  14.723  64.872  1.00  0.00    -0.423 Cl 
HETATM   23  C   UNL     1     -10.963  13.559  67.308  1.00  0.00    -0.293 A  
HETATM   24  C   UNL     1     -10.407  12.129  65.496  1.00  0.00    -0.263 A  
HETATM   25  N   UNL     1     -10.306  11.042  66.300  1.00  0.00    -0.245 NA 
HETATM   26  C   UNL     1     -10.813  12.465  68.162  1.00  0.00    -0.250 A  
HETATM   27  C   UNL     1     -10.729  13.394  65.950  1.00  0.00    -0.279 A  
ENDBRANCH  12  21
ENDBRANCH  10  11
ENDBRANCH   7  10
TORSDOF 3
ENDMDL
MODEL      178
REMARK 921   NORMALIZED FREE ENERGY PREDICTED BY IDOCK:   -1.12 KCAL/MOL
REMARK 922        TOTAL FREE ENERGY PREDICTED BY IDOCK:   -2.13 KCAL/MOL
REMARK 923 INTER-LIGAND FREE ENERGY PREDICTED BY IDOCK:   -3.82 KCAL/MOL
REMARK 924 INTRA-LIGAND FREE ENERGY PREDICTED BY IDOCK:    1.69 KCAL/MOL
REMARK 927      BINDING AFFINITY PREDICTED BY RF-SCORE:    0.00 PKD
ROOT
HETATM    1  C   UNL     1     -12.377  14.116  63.256  1.00  0.00     0.581 C  
HETATM    2  N   UNL     1     -12.927  13.130  64.185  1.00  0.00    -0.477 NA 
HETATM    3  C   UNL     1     -12.213  11.836  64.093  1.00  0.00    -0.190 C  
HETATM    4  C   UNL     1     -10.806  11.838  64.719  1.00  0.00    -0.302 C  
HETATM    5  N   UNL     1     -10.843  12.344  66.087  1.00  0.00    -0.265 N  
HETATM    6  C   UNL     1     -11.504  13.642  66.242  1.00  0.00    -0.333 C  
HETATM    7  C   UNL     1     -10.566  11.491  67.138  1.00  0.00    -0.237 C  
HETATM    8  O   UNL     1     -10.318  10.302  66.999  1.00  0.00    -0.219 OA 
HETATM    9  C   UNL     1     -12.902  13.618  65.584  1.00  0.00    -0.371 C  
ENDROOT
BRANCH   7  10
HETATM   10  O   UNL     1     -10.569  12.129  68.333  1.00  0.00    -0.212 OA 
BRANCH  10  11
HETATM   11  C   UNL     1      -9.283  12.445  68.865  1.00  0.00     0.288 C  
HETATM   12  N   UNL     1      -8.278  11.724  68.102  1.00  0.00    -0.146 N  
HETATM   13  C   UNL     1      -7.467  12.566  67.352  1.00  0.00    -0.153 C  
HETATM   14  C   UNL     1      -9.001  13.881  68.491  1.00  0.00    -0.141 A  
HETATM   15  N   UNL     1      -9.667  14.986  68.901  1.00  0.00    -0.218 NA 
HETATM   16  C   UNL     1      -7.952  13.932  67.596  1.00  0.00    -0.175 A  
HETATM   17  O   UNL     1      -6.497  12.286  66.672  1.00  0.00    -0.048 OA 
HETATM   18  C   UNL     1      -9.199  16.138  68.355  1.00  0.00    -0.203 A  
HETATM   19  N   UNL     1      -7.465  15.063  67.051  1.00  0.00    -0.098 NA 
HETATM   20  C   UNL     1      -8.127  16.174  67.458  1.00  0.00    -0.145 A  
BRANCH  12  21
HETATM   21  C   UNL     1      -8.013  10.376  68.363  1.00  0.00    -0.110 A  
HETATM   22 CL   UNL     1      -7.317   5.994  68.882  1.00  0.00    -0.083 Cl 
HETATM   23  C   UNL     1      -8.223   8.399  69.719  1.00  0.00    -0.119 A  
HETATM   24  C   UNL     1      -7.143   8.367  67.604  1.00  0.00    -0.083 A  
HETATM   25  N   UNL     1      -7.322   9.698  67.421  1.00  0.00    -0.087 NA 
HETATM   26  C   UNL     1      -8.465   9.761  69.527  1.00  0.00    -0.176 A  
HETATM   27  C   UNL     1      -7.572   7.682  68.726  1.00  0.00    -0.102 A  
ENDBRANCH  12  21
ENDBRANCH  10  11
ENDBRANCH   7  10
TORSDOF 3
ENDMDL
MODEL      179
REMARK 921   NORMALIZED FREE ENERGY PREDICTED BY IDOCK:   -1.03 KCAL/MOL
REMARK 922        TOTAL FREE ENERGY PREDICTED BY IDOCK:   -2.02 KCAL/MOL
REMARK 923 INTER-LIGAND FREE ENERGY PREDICTED BY IDOCK:   -3.41 KCAL/MOL
REMARK 924 INTRA-LIGAND FREE ENERGY PREDICTED BY IDOCK:    1.39 KCAL/MOL
REMARK 927      BINDING AFFINITY PREDICTED BY RF-SCORE:    0.00 PKD
ROOT
HETATM    1  C   UNL     1     -13.065  15.638  69.612  1.00  0.00     0.782 C  
HETATM    2  N   UNL     1     -11.760  15.037  69.339  1.00  0.00    -0.307 NA 
HETATM    3  C   UNL     1     -11.333  14.137  70.434  1.00  0.00     0.010 C  
HETATM    4  C   UNL     1     -12.088  12.796  70.489  1.00  0.00    -0.285 C  
HETATM    5  N   UNL     1     -12.060  12.127  69.193  1.00  0.00    -0.229 N  
HETATM    6  C   UNL     1     -12.508  12.952  68.069  1.00  0.00     0.572 C  
HETATM    7  C   UNL     1     -11.358  10.946  69.049  1.00  0.00    -0.281 C  
HETATM    8  O   UNL     1     -10.714  10.427  69.949  1.00  0.00    -0.267 OA 
HETATM    9  C   UNL     1     -11.752  14.300  68.052  1.00  0.00    -0.351 C  
ENDROOT
BRANCH   7  10
HETATM   10  O   UNL     1     -11.492  10.415  67.810  1.00  0.00    -0.406 OA 
BRANCH  10  11
HETATM   11  C   UNL     1     -10.272  10.096  67.143  1.00  0.00    -0.225 C  
HETATM   12  N   UNL     1      -9.175  10.729  67.858  1.00  0.00    -0.148 N  
HETATM   13  C   UNL     1      -8.334   9.809  68.472  1.00  0.00    -0.110 C  
HETATM   14  C   UNL     1     -10.013   8.629  67.391  1.00  0.00    -0.210 A  
HETATM   15  N   UNL     1     -10.755   7.578  66.969  1.00  0.00    -0.352 NA 
HETATM   16  C   UNL     1      -8.891   8.481  68.181  1.00  0.00    -0.142 A  
HETATM   17  O   UNL     1      -7.298  10.008  69.078  1.00  0.00    -0.074 OA 
HETATM   18  C   UNL     1     -10.285   6.376  67.391  1.00  0.00    -0.178 A  
HETATM   19  N   UNL     1      -8.402   7.299  68.602  1.00  0.00    -0.125 NA 
HETATM   20  C   UNL     1      -9.140   6.241  68.182  1.00  0.00    -0.112 A  
BRANCH  12  21
HETATM   21  C   UNL     1      -8.883  12.083  67.666  1.00  0.00    -0.172 A  
HETATM   22 CL   UNL     1      -8.130  16.475  67.353  1.00  0.00    -0.164 Cl 
HETATM   23  C   UNL     1      -8.947  14.099  66.354  1.00  0.00    -0.069 A  
HETATM   24  C   UNL     1      -8.093  14.064  68.570  1.00  0.00    -0.139 A  
HETATM   25  N   UNL     1      -8.293  12.729  68.695  1.00  0.00    -0.037 NA 
HETATM   26  C   UNL     1      -9.209  12.733  66.479  1.00  0.00    -0.190 A  
HETATM   27  C   UNL     1      -8.402  14.784  67.431  1.00  0.00    -0.200 A  
ENDBRANCH  12  21
ENDBRANCH  10  11
ENDBRANCH   7  10
TORSDOF 3
ENDMDL
MODEL      180
REMARK 921   NORMALIZED FREE ENERGY PREDICTED BY IDOCK:   -0.99 KCAL/MOL
REMARK 922        TOTAL FREE ENERGY PREDICTED BY IDOCK:   -1.97 KCAL/MOL
REMARK 923 INTER-LIGAND FREE ENERGY PREDICTED BY IDOCK:   -1.33 KCAL/MOL
REMARK 924 INTRA-LIGAND FREE ENERGY PREDICTED BY IDOCK:   -0.64 KCAL/MOL
REMARK 927      BINDING AFFINITY PREDICTED BY RF-SCORE:    0.00 PKD
ROOT
HETATM    1  C   UNL     1     -11.447   6.319  74.025  1.00  0.00     1.636 C  
HETATM    2  N   UNL     1     -11.364   6.303  72.565  1.00  0.00    -0.276 NA 
HETATM    3  C   UNL     1     -12.417   7.143  71.950  1.00  0.00    -0.306 C  
HETATM    4  C   UNL     1     -12.183   8.659  72.080  1.00  0.00    -0.373 C  
HETATM    5  N   UNL     1     -10.851   9.025  71.609  1.00  0.00    -0.344 N  
HETATM    6  C   UNL     1      -9.758   8.256  72.209  1.00  0.00    -0.292 C  
HETATM    7  C   UNL     1     -10.717   9.792  70.468  1.00  0.00    -0.317 C  
HETATM    8  O   UNL     1     -11.662  10.167  69.789  1.00  0.00    -0.218 OA 
HETATM    9  C   UNL     1     -10.031   6.740  72.085  1.00  0.00    -0.162 C  
ENDROOT
BRANCH   7  10
HETATM   10  O   UNL     1      -9.425  10.105  70.207  1.00  0.00    -0.096 OA 
BRANCH  10  11
HETATM   11  C   UNL     1      -8.998   9.881  68.865  1.00  0.00    -0.153 C  
HETATM   12  N   UNL     1      -7.838  10.716  68.603  1.00  0.00    -0.113 N  
HETATM   13  C   UNL     1      -6.676   9.978  68.418  1.00  0.00    -0.055 C  
HETATM   14  C   UNL     1      -8.408   8.490  68.824  1.00  0.00    -0.122 A  
HETATM   15  N   UNL     1      -9.049   7.317  69.032  1.00  0.00    -0.134 NA 
HETATM   16  C   UNL     1      -7.052   8.567  68.580  1.00  0.00    -0.072 A  
HETATM   17  O   UNL     1      -5.564  10.368  68.113  1.00  0.00    -0.037 OA 
HETATM   18  C   UNL     1      -8.234   6.232  68.970  1.00  0.00    -0.114 A  
HETATM   19  N   UNL     1      -6.227   7.505  68.504  1.00  0.00    -0.031 NA 
HETATM   20  C   UNL     1      -6.863   6.325  68.710  1.00  0.00    -0.070 A  
BRANCH  12  21
HETATM   21  C   UNL     1      -7.988  12.071  68.289  1.00  0.00    -0.149 A  
HETATM   22 CL   UNL     1      -8.183  16.366  67.078  1.00  0.00    -0.208 Cl 
HETATM   23  C   UNL     1      -8.124  14.389  68.920  1.00  0.00    -0.095 A  
HETATM   24  C   UNL     1      -8.111  13.700  66.648  1.00  0.00     0.507 A  
HETATM   25  N   UNL     1      -8.068  12.386  66.979  1.00  0.00    -0.157 NA 
HETATM   26  C   UNL     1      -8.027  13.044  69.284  1.00  0.00     0.605 A  
HETATM   27  C   UNL     1      -8.140  14.726  67.575  1.00  0.00    -0.181 A  
ENDBRANCH  12  21
ENDBRANCH  10  11
ENDBRANCH   7  10
TORSDOF 3
ENDMDL
MODEL      181
REMARK 921   NORMALIZED FREE ENERGY PREDICTED BY IDOCK:   -0.84 KCAL/MOL
REMARK 922        TOTAL FREE ENERGY PREDICTED BY IDOCK:   -1.80 KCAL/MOL
REMARK 923 INTER-LIGAND FREE ENERGY PREDICTED BY IDOCK:   -3.29 KCAL/MOL
REMARK 924 INTRA-LIGAND FREE ENERGY PREDICTED BY IDOCK:    1.49 KCAL/MOL
REMARK 927      BINDING AFFINITY PREDICTED BY RF-SCORE:    0.00 PKD
ROOT
HETATM    1  C   UNL     1      -6.017  10.706  71.276  1.00  0.00     0.237 C  
HETATM    2  N   UNL     1      -5.271   9.728  70.486  1.00  0.00    -0.036 NA 
HETATM    3  C   UNL     1      -5.826   8.364  70.639  1.00  0.00    -0.032 C  
HETATM    4  C   UNL     1      -7.163   8.132  69.910  1.00  0.00    -0.060 C  
HETATM    5  N   UNL     1      -7.069   8.527  68.509  1.00  0.00    -0.072 N  
HETATM    6  C   UNL     1      -6.562   9.883  68.288  1.00  0.00    -0.055 C  
HETATM    7  C   UNL     1      -7.147   7.564  67.522  1.00  0.00    -0.085 C  
HETATM    8  O   UNL     1      -7.258   6.368  67.750  1.00  0.00    -0.082 OA 
HETATM    9  C   UNL     1      -5.234  10.094  69.050  1.00  0.00    -0.035 C  
ENDROOT
BRANCH   7  10
HETATM   10  O   UNL     1      -7.117   8.098  66.277  1.00  0.00    -0.071 OA 
BRANCH  10  11
HETATM   11  C   UNL     1      -8.373   8.152  65.603  1.00  0.00    -0.143 C  
HETATM   12  N   UNL     1      -9.220   7.087  66.113  1.00  0.00    -0.123 N  
HETATM   13  C   UNL     1     -10.309   7.565  66.831  1.00  0.00    -0.309 C  
HETATM   14  C   UNL     1      -9.080   9.391  66.101  1.00  0.00    -0.171 A  
HETATM   15  N   UNL     1      -8.703  10.680  65.932  1.00  0.00    -0.171 NA 
HETATM   16  C   UNL     1     -10.195   9.029  66.829  1.00  0.00    -0.271 A  
HETATM   17  O   UNL     1     -11.234   6.942  67.320  1.00  0.00    -0.317 OA 
HETATM   18  C   UNL     1      -9.528  11.573  66.538  1.00  0.00    -0.204 A  
HETATM   19  N   UNL     1     -11.033   9.897  67.429  1.00  0.00    -0.226 NA 
HETATM   20  C   UNL     1     -10.661  11.191  67.262  1.00  0.00    -0.258 A  
BRANCH  12  21
HETATM   21  C   UNL     1      -9.072   5.774  65.655  1.00  0.00    -0.071 A  
HETATM   22 CL   UNL     1      -8.728   1.690  63.879  1.00  0.00    -0.081 Cl 
HETATM   23  C   UNL     1      -9.528   3.416  65.799  1.00  0.00    -0.119 A  
HETATM   24  C   UNL     1      -8.286   4.352  64.005  1.00  0.00    -0.102 A  
HETATM   25  N   UNL     1      -8.356   5.602  64.524  1.00  0.00    -0.131 NA 
HETATM   26  C   UNL     1      -9.658   4.703  66.324  1.00  0.00    -0.187 A  
HETATM   27  C   UNL     1      -8.851   3.239  64.601  1.00  0.00    -0.113 A  
ENDBRANCH  12  21
ENDBRANCH  10  11
ENDBRANCH   7  10
TORSDOF 3
ENDMDL
MODEL      182
REMARK 921   NORMALIZED FREE ENERGY PREDICTED BY IDOCK:   -0.75 KCAL/MOL
REMARK 922        TOTAL FREE ENERGY PREDICTED BY IDOCK:   -1.69 KCAL/MOL
REMARK 923 INTER-LIGAND FREE ENERGY PREDICTED BY IDOCK:   -1.46 KCAL/MOL
REMARK 924 INTRA-LIGAND FREE ENERGY PREDICTED BY IDOCK:   -0.23 KCAL/MOL
REMARK 927      BINDING AFFINITY PREDICTED BY RF-SCORE:    0.00 PKD
ROOT
HETATM    1  C   UNL     1      -6.387  10.476  71.662  1.00  0.00     1.052 C  
HETATM    2  N   UNL     1      -5.461   9.853  70.717  1.00  0.00    -0.054 NA 
HETATM    3  C   UNL     1      -5.554   8.376  70.755  1.00  0.00    -0.028 C  
HETATM    4  C   UNL     1      -6.822   7.799  70.100  1.00  0.00    -0.049 C  
HETATM    5  N   UNL     1      -6.996   8.320  68.748  1.00  0.00    -0.065 N  
HETATM    6  C   UNL     1      -6.953   9.780  68.646  1.00  0.00    -0.063 C  
HETATM    7  C   UNL     1      -6.875   7.469  67.667  1.00  0.00    -0.071 C  
HETATM    8  O   UNL     1      -6.591   6.284  67.767  1.00  0.00    -0.056 OA 
HETATM    9  C   UNL     1      -5.683  10.333  69.332  1.00  0.00    -0.037 C  
ENDROOT
BRANCH   7  10
HETATM   10  O   UNL     1      -7.136   8.089  66.492  1.00  0.00    -0.072 OA 
BRANCH  10  11
HETATM   11  C   UNL     1      -8.386   7.758  65.888  1.00  0.00    -0.134 C  
HETATM   12  N   UNL     1      -8.811   8.875  65.061  1.00  0.00    -0.174 N  
HETATM   13  C   UNL     1      -8.803   8.573  63.705  1.00  0.00     0.362 C  
HETATM   14  C   UNL     1      -8.100   6.688  64.860  1.00  0.00    -0.115 A  
HETATM   15  N   UNL     1      -7.643   5.434  65.081  1.00  0.00    -0.077 NA 
HETATM   16  C   UNL     1      -8.332   7.186  63.594  1.00  0.00     0.212 A  
HETATM   17  O   UNL     1      -9.170   9.258  62.768  1.00  0.00    -0.142 OA 
HETATM   18  C   UNL     1      -7.444   4.719  63.943  1.00  0.00    -0.059 A  
HETATM   19  N   UNL     1      -8.152   6.492  62.453  1.00  0.00    -0.104 NA 
HETATM   20  C   UNL     1      -7.695   5.233  62.667  1.00  0.00    -0.071 A  
BRANCH  12  21
HETATM   21  C   UNL     1      -9.425   9.994  65.632  1.00  0.00    -0.220 A  
HETATM   22 CL   UNL     1     -11.089  13.748  67.392  1.00  0.00    -0.302 Cl 
HETATM   23  C   UNL     1     -10.519  11.107  67.464  1.00  0.00    -0.239 A  
HETATM   24  C   UNL     1      -9.946  12.245  65.460  1.00  0.00    -0.244 A  
HETATM   25  N   UNL     1      -9.448  11.121  64.889  1.00  0.00    -0.221 NA 
HETATM   26  C   UNL     1      -9.963   9.949  66.915  1.00  0.00    -0.268 A  
HETATM   27  C   UNL     1     -10.486  12.285  66.733  1.00  0.00    -0.218 A  
ENDBRANCH  12  21
ENDBRANCH  10  11
ENDBRANCH   7  10
TORSDOF 3
ENDMDL
MODEL      183
REMARK 921   NORMALIZED FREE ENERGY PREDICTED BY IDOCK:   -0.53 KCAL/MOL
REMARK 922        TOTAL FREE ENERGY PREDICTED BY IDOCK:   -1.43 KCAL/MOL
REMARK 923 INTER-LIGAND FREE ENERGY PREDICTED BY IDOCK:   -4.52 KCAL/MOL
REMARK 924 INTRA-LIGAND FREE ENERGY PREDICTED BY IDOCK:    3.09 KCAL/MOL
REMARK 927      BINDING AFFINITY PREDICTED BY RF-SCORE:    0.00 PKD
ROOT
HETATM    1  C   UNL     1     -11.374  17.101  67.400  1.00  0.00     0.419 C  
HETATM    2  N   UNL     1     -10.652  16.366  68.438  1.00  0.00    -0.294 NA 
HETATM    3  C   UNL     1     -11.579  15.661  69.352  1.00  0.00    -0.370 C  
HETATM    4  C   UNL     1     -12.247  14.413  68.746  1.00  0.00    -0.165 C  
HETATM    5  N   UNL     1     -11.252  13.511  68.177  1.00  0.00    -0.259 N  
HETATM    6  C   UNL     1     -10.326  14.139  67.232  1.00  0.00    -0.267 C  
HETATM    7  C   UNL     1     -11.039  12.276  68.757  1.00  0.00    -0.251 C  
HETATM    8  O   UNL     1     -11.619  11.890  69.762  1.00  0.00    -0.297 OA 
HETATM    9  C   UNL     1      -9.688  15.400  67.858  1.00  0.00    -0.207 C  
ENDROOT
BRANCH   7  10
HETATM   10  O   UNL     1     -10.140  11.532  68.070  1.00  0.00    -0.177 OA 
BRANCH  10  11
HETATM   11  C   UNL     1      -9.278  12.261  67.197  1.00  0.00    -0.196 C  
HETATM   12  N   UNL     1      -7.900  11.952  67.544  1.00  0.00    -0.142 N  
HETATM   13  C   UNL     1      -7.245  11.237  66.550  1.00  0.00    -0.096 C  
HETATM   14  C   UNL     1      -9.413  11.633  65.830  1.00  0.00    -0.226 A  
HETATM   15  N   UNL     1     -10.515  11.598  65.044  1.00  0.00    -0.273 NA 
HETATM   16  C   UNL     1      -8.225  11.026  65.477  1.00  0.00     0.018 A  
HETATM   17  O   UNL     1      -6.078  10.892  66.501  1.00  0.00    -0.095 OA 
HETATM   18  C   UNL     1     -10.333  10.919  63.882  1.00  0.00    -0.329 A  
HETATM   19  N   UNL     1      -8.020  10.357  64.326  1.00  0.00    -0.124 NA 
HETATM   20  C   UNL     1      -9.119  10.319  63.533  1.00  0.00    -0.264 A  
BRANCH  12  21
HETATM   21  C   UNL     1      -7.277  12.582  68.626  1.00  0.00    -0.103 A  
HETATM   22 CL   UNL     1      -5.146  14.824  71.850  1.00  0.00    -0.160 Cl 
HETATM   23  C   UNL     1      -5.810  12.558  70.533  1.00  0.00    -0.126 A  
HETATM   24  C   UNL     1      -6.818  14.558  69.744  1.00  0.00    -0.126 A  
HETATM   25  N   UNL     1      -7.493  13.907  68.765  1.00  0.00    -0.123 NA 
HETATM   26  C   UNL     1      -6.454  11.875  69.498  1.00  0.00    -0.113 A  
HETATM   27  C   UNL     1      -5.974  13.931  70.643  1.00  0.00    -0.174 A  
ENDBRANCH  12  21
ENDBRANCH  10  11
ENDBRANCH   7  10
TORSDOF 3
ENDMDL
MODEL      184
REMARK 921   NORMALIZED FREE ENERGY PREDICTED BY IDOCK:   -0.22 KCAL/MOL
REMARK 922        TOTAL FREE ENERGY PREDICTED BY IDOCK:   -1.07 KCAL/MOL
REMARK 923 INTER-LIGAND FREE ENERGY PREDICTED BY IDOCK:   -3.40 KCAL/MOL
REMARK 924 INTRA-LIGAND FREE ENERGY PREDICTED BY IDOCK:    2.33 KCAL/MOL
REMARK 927      BINDING AFFINITY PREDICTED BY RF-SCORE:    0.00 PKD
ROOT
HETATM    1  C   UNL     1     -13.762  15.949  72.591  1.00  0.00    -0.447 C  
HETATM    2  N   UNL     1     -12.603  15.420  71.875  1.00  0.00    -0.349 NA 
HETATM    3  C   UNL     1     -11.884  14.403  72.676  1.00  0.00     0.356 C  
HETATM    4  C   UNL     1     -12.605  13.047  72.784  1.00  0.00     1.035 C  
HETATM    5  N   UNL     1     -12.968  12.542  71.464  1.00  0.00    -0.343 N  
HETATM    6  C   UNL     1     -13.717  13.487  70.632  1.00  0.00     0.864 C  
HETATM    7  C   UNL     1     -12.354  11.405  70.975  1.00  0.00    -0.343 C  
HETATM    8  O   UNL     1     -11.480  10.797  71.575  1.00  0.00     0.277 OA 
HETATM    9  C   UNL     1     -12.983  14.845  70.562  1.00  0.00    -0.292 C  
ENDROOT
BRANCH   7  10
HETATM   10  O   UNL     1     -12.853  11.027  69.774  1.00  0.00    -0.133 OA 
BRANCH  10  11
HETATM   11  C   UNL     1     -11.902  10.491  68.855  1.00  0.00    -0.066 C  
HETATM   12  N   UNL     1     -10.931  11.525  68.538  1.00  0.00    -0.207 N  
HETATM   13  C   UNL     1      -9.663  11.238  69.028  1.00  0.00    -0.054 C  
HETATM   14  C   UNL     1     -11.069   9.493  69.626  1.00  0.00    -0.171 A  
HETATM   15  N   UNL     1     -11.483   8.334  70.189  1.00  0.00    -0.078 NA 
HETATM   16  C   UNL     1      -9.772   9.953  69.732  1.00  0.00    -0.236 A  
HETATM   17  O   UNL     1      -8.626  11.857  68.872  1.00  0.00    -0.010 OA 
HETATM   18  C   UNL     1     -10.502   7.672  70.855  1.00  0.00    -0.206 A  
HETATM   19  N   UNL     1      -8.782   9.309  70.378  1.00  0.00    -0.210 NA 
HETATM   20  C   UNL     1      -9.189   8.146  70.944  1.00  0.00    -0.151 A  
BRANCH  12  21
HETATM   21  C   UNL     1     -11.224  12.518  67.598  1.00  0.00    -0.282 A  
HETATM   22 CL   UNL     1     -12.047  15.466  64.344  1.00  0.00    -0.320 Cl 
HETATM   23  C   UNL     1     -10.965  14.740  66.713  1.00  0.00    -0.327 A  
HETATM   24  C   UNL     1     -12.246  13.081  65.598  1.00  0.00    -0.466 A  
HETATM   25  N   UNL     1     -12.031  12.166  66.575  1.00  0.00    -0.631 NA 
HETATM   26  C   UNL     1     -10.687  13.798  67.705  1.00  0.00    -0.254 A  
HETATM   27  C   UNL     1     -11.739  14.367  65.624  1.00  0.00    -0.356 A  
ENDBRANCH  12  21
ENDBRANCH  10  11
ENDBRANCH   7  10
TORSDOF 3
ENDMDL
MODEL      185
REMARK 921   NORMALIZED FREE ENERGY PREDICTED BY IDOCK:   -0.02 KCAL/MOL
REMARK 922        TOTAL FREE ENERGY PREDICTED BY IDOCK:   -0.83 KCAL/MOL
REMARK 923 INTER-LIGAND FREE ENERGY PREDICTED BY IDOCK:   -2.49 KCAL/MOL
REMARK 924 INTRA-LIGAND FREE ENERGY PREDICTED BY IDOCK:    1.66 KCAL/MOL
REMARK 927      BINDING AFFINITY PREDICTED BY RF-SCORE:    0.00 PKD
ROOT
HETATM    1  C   UNL     1     -10.197   5.460  65.339  1.00  0.00     0.441 C  
HETATM    2  N   UNL     1     -10.901   5.224  66.598  1.00  0.00    -0.194 NA 
HETATM    3  C   UNL     1     -10.023   4.581  67.603  1.00  0.00    -0.081 C  
HETATM    4  C   UNL     1      -8.963   5.515  68.216  1.00  0.00    -0.108 C  
HETATM    5  N   UNL     1      -9.576   6.735  68.730  1.00  0.00    -0.133 N  
HETATM    6  C   UNL     1     -10.429   7.442  67.771  1.00  0.00    -0.232 C  
HETATM    7  C   UNL     1      -9.586   6.973  70.090  1.00  0.00    -0.164 C  
HETATM    8  O   UNL     1      -9.134   6.195  70.918  1.00  0.00    -0.149 OA 
HETATM    9  C   UNL     1     -11.466   6.476  67.155  1.00  0.00     0.255 C  
ENDROOT
BRANCH   7  10
HETATM   10  O   UNL     1     -10.123   8.178  70.398  1.00  0.00    -0.191 OA 
BRANCH  10  11
HETATM   11  C   UNL     1      -9.185   9.225  70.640  1.00  0.00    -0.264 C  
HETATM   12  N   UNL     1      -7.845   8.703  70.432  1.00  0.00    -0.083 N  
HETATM   13  C   UNL     1      -7.216   9.264  69.327  1.00  0.00    -0.065 C  
HETATM   14  C   UNL     1      -9.328  10.207  69.500  1.00  0.00    -0.210 A  
HETATM   15  N   UNL     1     -10.407  10.966  69.196  1.00  0.00    -0.217 NA 
HETATM   16  C   UNL     1      -8.179  10.203  68.736  1.00  0.00    -0.113 A  
HETATM   17  O   UNL     1      -6.078   9.096  68.930  1.00  0.00    -0.043 OA 
HETATM   18  C   UNL     1     -10.243  11.722  68.080  1.00  0.00    -0.203 A  
HETATM   19  N   UNL     1      -7.992  10.952  67.632  1.00  0.00    -0.113 NA 
HETATM   20  C   UNL     1      -9.068  11.716  67.322  1.00  0.00    -0.167 A  
BRANCH  12  21
HETATM   21  C   UNL     1      -7.207   7.953  71.425  1.00  0.00    -0.065 A  
HETATM   22 CL   UNL     1      -5.283   5.266  74.430  1.00  0.00    -0.021 Cl 
HETATM   23  C   UNL     1      -6.868   7.340  73.727  1.00  0.00    -0.082 A  
HETATM   24  C   UNL     1      -5.773   6.211  71.947  1.00  0.00    -0.031 A  
HETATM   25  N   UNL     1      -6.326   7.018  71.009  1.00  0.00    -0.040 NA 
HETATM   26  C   UNL     1      -7.490   8.150  72.774  1.00  0.00    -0.163 A  
HETATM   27  C   UNL     1      -6.013   6.333  73.304  1.00  0.00    -0.057 A  
ENDBRANCH  12  21
ENDBRANCH  10  11
ENDBRANCH   7  10
TORSDOF 3
ENDMDL
MODEL      186
REMARK 921   NORMALIZED FREE ENERGY PREDICTED BY IDOCK:    0.64 KCAL/MOL
REMARK 922        TOTAL FREE ENERGY PREDICTED BY IDOCK:   -0.06 KCAL/MOL
REMARK 923 INTER-LIGAND FREE ENERGY PREDICTED BY IDOCK:   -2.60 KCAL/MOL
REMARK 924 INTRA-LIGAND FREE ENERGY PREDICTED BY IDOCK:    2.54 KCAL/MOL
REMARK 927      BINDING AFFINITY PREDICTED BY RF-SCORE:    0.00 PKD
ROOT
HETATM    1  C   UNL     1      -9.142  18.255  66.032  1.00  0.00     0.026 C  
HETATM    2  N   UNL     1     -10.440  17.758  65.579  1.00  0.00    -0.636 NA 
HETATM    3  C   UNL     1     -10.309  16.477  64.848  1.00  0.00     0.325 C  
HETATM    4  C   UNL     1     -10.004  15.260  65.742  1.00  0.00    -0.360 C  
HETATM    5  N   UNL     1     -10.961  15.164  66.839  1.00  0.00    -0.322 N  
HETATM    6  C   UNL     1     -11.110  16.389  67.628  1.00  0.00    -0.150 C  
HETATM    7  C   UNL     1     -11.852  14.110  66.878  1.00  0.00    -0.431 C  
HETATM    8  O   UNL     1     -11.918  13.247  66.015  1.00  0.00    -0.380 OA 
HETATM    9  C   UNL     1     -11.391  17.596  66.705  1.00  0.00     0.935 C  
ENDROOT
BRANCH   7  10
HETATM   10  O   UNL     1     -12.619  14.126  67.995  1.00  0.00     0.077 OA 
BRANCH  10  11
HETATM   11  C   UNL     1     -12.053  13.488  69.138  1.00  0.00    -0.288 C  
HETATM   12  N   UNL     1     -10.605  13.517  69.015  1.00  0.00    -0.157 N  
HETATM   13  C   UNL     1     -10.003  14.330  69.966  1.00  0.00     0.910 C  
HETATM   14  C   UNL     1     -12.295  14.408  70.312  1.00  0.00    -0.348 A  
HETATM   15  N   UNL     1     -13.485  14.766  70.847  1.00  0.00    -0.335 NA 
HETATM   16  C   UNL     1     -11.091  14.903  70.770  1.00  0.00    -0.120 A  
HETATM   17  O   UNL     1      -8.817  14.510  70.177  1.00  0.00     0.731 OA 
HETATM   18  C   UNL     1     -13.377  15.646  71.876  1.00  0.00    -0.450 A  
HETATM   19  N   UNL     1     -10.959  15.768  71.794  1.00  0.00     0.017 NA 
HETATM   20  C   UNL     1     -12.148  16.130  72.336  1.00  0.00    -0.540 A  
BRANCH  12  21
HETATM   21  C   UNL     1      -9.937  12.588  68.212  1.00  0.00    -0.229 A  
HETATM   22 CL   UNL     1      -7.781   9.409  65.930  1.00  0.00    -0.098 Cl 
HETATM   23  C   UNL     1      -8.122  11.959  66.762  1.00  0.00    -0.108 A  
HETATM   24  C   UNL     1      -9.759  10.397  67.483  1.00  0.00    -0.169 A  
HETATM   25  N   UNL     1     -10.448  11.339  68.172  1.00  0.00    -0.182 NA 
HETATM   26  C   UNL     1      -8.786  12.935  67.509  1.00  0.00    -0.190 A  
HETATM   27  C   UNL     1      -8.603  10.657  66.771  1.00  0.00    -0.129 A  
ENDBRANCH  12  21
ENDBRANCH  10  11
ENDBRANCH   7  10
TORSDOF 3
ENDMDL
MODEL      187
REMARK 921   NORMALIZED FREE ENERGY PREDICTED BY IDOCK:    0.92 KCAL/MOL
REMARK 922        TOTAL FREE ENERGY PREDICTED BY IDOCK:    0.27 KCAL/MOL
REMARK 923 INTER-LIGAND FREE ENERGY PREDICTED BY IDOCK:    0.44 KCAL/MOL
REMARK 924 INTRA-LIGAND FREE ENERGY PREDICTED BY IDOCK:   -0.17 KCAL/MOL
REMARK 927      BINDING AFFINITY PREDICTED BY RF-SCORE:    0.00 PKD
ROOT
HETATM    1  C   UNL     1      -9.816   5.181  65.319  1.00  0.00     0.169 C  
HETATM    2  N   UNL     1     -10.747   4.969  66.426  1.00  0.00    -0.261 NA 
HETATM    3  C   UNL     1     -10.043   4.543  67.657  1.00  0.00    -0.015 C  
HETATM    4  C   UNL     1      -9.253   5.662  68.360  1.00  0.00    -0.118 C  
HETATM    5  N   UNL     1     -10.096   6.831  68.592  1.00  0.00    -0.153 N  
HETATM    6  C   UNL     1     -10.792   7.327  67.403  1.00  0.00    -0.247 C  
HETATM    7  C   UNL     1     -10.428   7.188  69.884  1.00  0.00    -0.223 C  
HETATM    8  O   UNL     1     -10.083   6.556  70.871  1.00  0.00    -0.184 OA 
HETATM    9  C   UNL     1     -11.556   6.179  66.705  1.00  0.00     0.911 C  
ENDROOT
BRANCH   7  10
HETATM   10  O   UNL     1     -11.151   8.333  69.932  1.00  0.00    -0.210 OA 
BRANCH  10  11
HETATM   11  C   UNL     1     -10.637   9.348  70.793  1.00  0.00    -0.303 C  
HETATM   12  N   UNL     1     -10.253  10.492  69.982  1.00  0.00    -0.084 N  
HETATM   13  C   UNL     1     -11.056  11.603  70.209  1.00  0.00     0.503 C  
HETATM   14  C   UNL     1     -11.811   9.887  71.576  1.00  0.00    -0.365 A  
HETATM   15  N   UNL     1     -12.577   9.226  72.475  1.00  0.00    -0.267 NA 
HETATM   16  C   UNL     1     -12.052  11.196  71.210  1.00  0.00    -0.097 A  
HETATM   17  O   UNL     1     -10.953  12.725  69.750  1.00  0.00     0.087 OA 
HETATM   18  C   UNL     1     -13.590   9.974  72.982  1.00  0.00     1.240 A  
HETATM   19  N   UNL     1     -13.044  11.960  71.707  1.00  0.00    -0.432 NA 
HETATM   20  C   UNL     1     -13.814  11.304  72.610  1.00  0.00     1.180 A  
BRANCH  12  21
HETATM   21  C   UNL     1      -9.034  10.507  69.298  1.00  0.00    -0.134 A  
HETATM   22 CL   UNL     1      -5.322  10.619  66.816  1.00  0.00    -0.044 Cl 
HETATM   23  C   UNL     1      -6.970   9.470  68.623  1.00  0.00    -0.064 A  
HETATM   24  C   UNL     1      -7.641  11.594  67.801  1.00  0.00    -0.121 A  
HETATM   25  N   UNL     1      -8.769  11.601  68.553  1.00  0.00    -0.155 NA 
HETATM   26  C   UNL     1      -8.152   9.432  69.367  1.00  0.00    -0.105 A  
HETATM   27  C   UNL     1      -6.722  10.561  67.803  1.00  0.00    -0.069 A  
ENDBRANCH  12  21
ENDBRANCH  10  11
ENDBRANCH   7  10
TORSDOF 3
ENDMDL
MODEL      188
REMARK 921   NORMALIZED FREE ENERGY PREDICTED BY IDOCK:    1.07 KCAL/MOL
REMARK 922        TOTAL FREE ENERGY PREDICTED BY IDOCK:    0.45 KCAL/MOL
REMARK 923 INTER-LIGAND FREE ENERGY PREDICTED BY IDOCK:   -3.34 KCAL/MOL
REMARK 924 INTRA-LIGAND FREE ENERGY PREDICTED BY IDOCK:    3.79 KCAL/MOL
REMARK 927      BINDING AFFINITY PREDICTED BY RF-SCORE:    0.00 PKD
ROOT
HETATM    1  C   UNL     1     -13.071  15.163  71.576  1.00  0.00    -0.403 C  
HETATM    2  N   UNL     1     -12.042  14.133  71.710  1.00  0.00    -0.174 NA 
HETATM    3  C   UNL     1     -12.462  13.059  72.639  1.00  0.00     1.019 C  
HETATM    4  C   UNL     1     -13.531  12.106  72.071  1.00  0.00    -0.286 C  
HETATM    5  N   UNL     1     -13.123  11.576  70.774  1.00  0.00     0.015 N  
HETATM    6  C   UNL     1     -12.730  12.591  69.794  1.00  0.00     0.526 C  
HETATM    7  C   UNL     1     -12.835  10.231  70.646  1.00  0.00    -0.285 C  
HETATM    8  O   UNL     1     -12.868   9.440  71.578  1.00  0.00    -0.324 OA 
HETATM    9  C   UNL     1     -11.676  13.546  70.399  1.00  0.00    -0.127 C  
ENDROOT
BRANCH   7  10
HETATM   10  O   UNL     1     -12.545   9.886  69.369  1.00  0.00     0.490 OA 
BRANCH  10  11
HETATM   11  C   UNL     1     -11.405   9.045  69.204  1.00  0.00     0.366 C  
HETATM   12  N   UNL     1     -10.289   9.861  68.753  1.00  0.00    -0.194 N  
HETATM   13  C   UNL     1      -9.280   9.961  69.702  1.00  0.00    -0.227 C  
HETATM   14  C   UNL     1     -10.964   8.635  70.589  1.00  0.00    -0.240 A  
HETATM   15  N   UNL     1     -11.646   7.879  71.482  1.00  0.00    -0.263 NA 
HETATM   16  C   UNL     1      -9.733   9.192  70.870  1.00  0.00    -0.284 A  
HETATM   17  O   UNL     1      -8.195  10.504  69.608  1.00  0.00    -0.128 OA 
HETATM   18  C   UNL     1     -11.000   7.720  72.665  1.00  0.00    -0.364 A  
HETATM   19  N   UNL     1      -9.070   9.038  72.032  1.00  0.00    -0.355 NA 
HETATM   20  C   UNL     1      -9.747   8.281  72.930  1.00  0.00    -0.240 A  
BRANCH  12  21
HETATM   21  C   UNL     1     -10.168  10.227  67.409  1.00  0.00    -0.218 A  
HETATM   22 CL   UNL     1      -9.449  11.269  63.125  1.00  0.00    -0.344 Cl 
HETATM   23  C   UNL     1     -10.224  11.863  65.645  1.00  0.00    -0.280 A  
HETATM   24  C   UNL     1      -9.559   9.616  65.259  1.00  0.00    -0.277 A  
HETATM   25  N   UNL     1      -9.782   9.261  66.548  1.00  0.00    -0.219 NA 
HETATM   26  C   UNL     1     -10.410  11.532  66.990  1.00  0.00    -0.254 A  
HETATM   27  C   UNL     1      -9.764  10.893  64.768  1.00  0.00    -0.271 A  
ENDBRANCH  12  21
ENDBRANCH  10  11
ENDBRANCH   7  10
TORSDOF 3
ENDMDL
MODEL      189
REMARK 921   NORMALIZED FREE ENERGY PREDICTED BY IDOCK:    1.24 KCAL/MOL
REMARK 922        TOTAL FREE ENERGY PREDICTED BY IDOCK:    0.65 KCAL/MOL
REMARK 923 INTER-LIGAND FREE ENERGY PREDICTED BY IDOCK:   -0.61 KCAL/MOL
REMARK 924 INTRA-LIGAND FREE ENERGY PREDICTED BY IDOCK:    1.27 KCAL/MOL
REMARK 927      BINDING AFFINITY PREDICTED BY RF-SCORE:    0.00 PKD
ROOT
HETATM    1  C   UNL     1      -9.989  18.870  66.679  1.00  0.00    -0.373 C  
HETATM    2  N   UNL     1      -9.542  18.055  65.550  1.00  0.00    -0.031 NA 
HETATM    3  C   UNL     1      -8.339  17.262  65.891  1.00  0.00     0.021 C  
HETATM    4  C   UNL     1      -8.606  16.065  66.822  1.00  0.00    -0.257 C  
HETATM    5  N   UNL     1      -9.681  15.227  66.301  1.00  0.00    -0.277 N  
HETATM    6  C   UNL     1     -10.916  15.945  65.978  1.00  0.00    -0.139 C  
HETATM    7  C   UNL     1      -9.398  13.948  65.861  1.00  0.00     0.049 C  
HETATM    8  O   UNL     1      -8.272  13.470  65.848  1.00  0.00     1.404 OA 
HETATM    9  C   UNL     1     -10.614  17.154  65.064  1.00  0.00     0.183 C  
ENDROOT
BRANCH   7  10
HETATM   10  O   UNL     1     -10.510  13.277  65.478  1.00  0.00    -0.277 OA 
BRANCH  10  11
HETATM   11  C   UNL     1     -10.971  12.281  66.390  1.00  0.00    -0.287 C  
HETATM   12  N   UNL     1      -9.821  11.561  66.910  1.00  0.00    -0.195 N  
HETATM   13  C   UNL     1      -9.612  11.791  68.264  1.00  0.00    -0.199 C  
HETATM   14  C   UNL     1     -11.473  13.013  67.613  1.00  0.00    -0.324 A  
HETATM   15  N   UNL     1     -12.523  13.863  67.693  1.00  0.00    -0.012 NA 
HETATM   16  C   UNL     1     -10.659  12.729  68.691  1.00  0.00    -0.233 A  
HETATM   17  O   UNL     1      -8.788  11.287  69.005  1.00  0.00    -0.094 OA 
HETATM   18  C   UNL     1     -12.697  14.398  68.929  1.00  0.00     0.605 A  
HETATM   19  N   UNL     1     -10.820  13.239  69.927  1.00  0.00     0.386 NA 
HETATM   20  C   UNL     1     -11.871  14.092  70.014  1.00  0.00    -0.320 A  
BRANCH  12  21
HETATM   21  C   UNL     1      -9.216  10.545  66.164  1.00  0.00    -0.170 A  
HETATM   22 CL   UNL     1      -7.490   7.068  63.954  1.00  0.00    -0.088 Cl 
HETATM   23  C   UNL     1      -7.278   9.321  65.432  1.00  0.00    -0.090 A  
HETATM   24  C   UNL     1      -9.481   8.666  64.836  1.00  0.00     0.659 A  
HETATM   25  N   UNL     1     -10.038   9.719  65.483  1.00  0.00    -0.263 NA 
HETATM   26  C   UNL     1      -7.833  10.383  66.149  1.00  0.00    -0.135 A  
HETATM   27  C   UNL     1      -8.120   8.429  64.785  1.00  0.00    -0.155 A  
ENDBRANCH  12  21
ENDBRANCH  10  11
ENDBRANCH   7  10
TORSDOF 3
ENDMDL
MODEL      190
REMARK 921   NORMALIZED FREE ENERGY PREDICTED BY IDOCK:    1.35 KCAL/MOL
REMARK 922        TOTAL FREE ENERGY PREDICTED BY IDOCK:    0.78 KCAL/MOL
REMARK 923 INTER-LIGAND FREE ENERGY PREDICTED BY IDOCK:   -1.17 KCAL/MOL
REMARK 924 INTRA-LIGAND FREE ENERGY PREDICTED BY IDOCK:    1.95 KCAL/MOL
REMARK 927      BINDING AFFINITY PREDICTED BY RF-SCORE:    0.00 PKD
ROOT
HETATM    1  C   UNL     1     -12.168  13.038  68.440  1.00  0.00     0.010 C  
HETATM    2  N   UNL     1     -12.063  12.967  69.896  1.00  0.00    -0.296 NA 
HETATM    3  C   UNL     1     -13.184  12.201  70.487  1.00  0.00     0.723 C  
HETATM    4  C   UNL     1     -13.101  10.679  70.273  1.00  0.00     0.033 C  
HETATM    5  N   UNL     1     -11.805  10.161  70.699  1.00  0.00    -0.317 N  
HETATM    6  C   UNL     1     -10.650  10.851  70.119  1.00  0.00     0.240 C  
HETATM    7  C   UNL     1     -11.730   9.324  71.795  1.00  0.00    -0.386 C  
HETATM    8  O   UNL     1     -12.697   9.006  72.471  1.00  0.00    -0.379 OA 
HETATM    9  C   UNL     1     -10.772  12.378  70.327  1.00  0.00     1.783 C  
ENDROOT
BRANCH   7  10
HETATM   10  O   UNL     1     -10.472   8.873  72.014  1.00  0.00    -0.338 OA 
BRANCH  10  11
HETATM   11  C   UNL     1     -10.169   7.598  71.449  1.00  0.00    -0.185 C  
HETATM   12  N   UNL     1      -8.829   7.648  70.887  1.00  0.00    -0.145 N  
HETATM   13  C   UNL     1      -7.929   6.843  71.574  1.00  0.00    -0.104 C  
HETATM   14  C   UNL     1      -9.997   6.642  72.606  1.00  0.00    -0.171 A  
HETATM   15  N   UNL     1     -10.936   6.251  73.499  1.00  0.00    -0.167 NA 
HETATM   16  C   UNL     1      -8.683   6.226  72.674  1.00  0.00    -0.123 A  
HETATM   17  O   UNL     1      -6.763   6.609  71.315  1.00  0.00    -0.055 OA 
HETATM   18  C   UNL     1     -10.461   5.411  74.455  1.00  0.00    -0.224 A  
HETATM   19  N   UNL     1      -8.193   5.385  73.606  1.00  0.00    -0.112 NA 
HETATM   20  C   UNL     1      -9.129   4.989  74.504  1.00  0.00    -0.113 A  
BRANCH  12  21
HETATM   21  C   UNL     1      -8.602   8.217  69.630  1.00  0.00    -0.131 A  
HETATM   22 CL   UNL     1      -8.163   9.862  65.500  1.00  0.00    -0.131 Cl 
HETATM   23  C   UNL     1      -7.218   8.609  67.701  1.00  0.00    -0.084 A  
HETATM   24  C   UNL     1      -9.466   9.366  67.814  1.00  0.00    -0.132 A  
HETATM   25  N   UNL     1      -9.629   8.893  69.074  1.00  0.00    -0.156 NA 
HETATM   26  C   UNL     1      -7.381   8.068  68.978  1.00  0.00    -0.084 A  
HETATM   27  C   UNL     1      -8.290   9.247  67.095  1.00  0.00    -0.124 A  
ENDBRANCH  12  21
ENDBRANCH  10  11
ENDBRANCH   7  10
TORSDOF 3
ENDMDL
MODEL      191
REMARK 921   NORMALIZED FREE ENERGY PREDICTED BY IDOCK:    1.55 KCAL/MOL
REMARK 922        TOTAL FREE ENERGY PREDICTED BY IDOCK:    1.02 KCAL/MOL
REMARK 923 INTER-LIGAND FREE ENERGY PREDICTED BY IDOCK:   -1.98 KCAL/MOL
REMARK 924 INTRA-LIGAND FREE ENERGY PREDICTED BY IDOCK:    2.99 KCAL/MOL
REMARK 927      BINDING AFFINITY PREDICTED BY RF-SCORE:    0.00 PKD
ROOT
HETATM    1  C   UNL     1     -10.009  20.910  67.138  1.00  0.00    -0.008 C  
HETATM    2  N   UNL     1     -10.642  19.646  66.764  1.00  0.00    -0.475 NA 
HETATM    3  C   UNL     1      -9.926  18.986  65.649  1.00  0.00     0.225 C  
HETATM    4  C   UNL     1      -8.580  18.349  66.042  1.00  0.00     0.008 C  
HETATM    5  N   UNL     1      -8.737  17.462  67.190  1.00  0.00    -0.222 N  
HETATM    6  C   UNL     1      -9.405  18.067  68.344  1.00  0.00    -0.300 C  
HETATM    7  C   UNL     1      -8.557  16.102  67.031  1.00  0.00    -0.205 C  
HETATM    8  O   UNL     1      -8.301  15.573  65.959  1.00  0.00     0.009 OA 
HETATM    9  C   UNL     1     -10.740  18.718  67.916  1.00  0.00    -0.285 C  
ENDROOT
BRANCH   7  10
HETATM   10  O   UNL     1      -8.664  15.428  68.201  1.00  0.00    -0.158 OA 
BRANCH  10  11
HETATM   11  C   UNL     1      -9.727  14.479  68.268  1.00  0.00    -0.218 C  
HETATM   12  N   UNL     1     -10.944  15.174  68.654  1.00  0.00    -0.244 N  
HETATM   13  C   UNL     1     -11.890  15.203  67.637  1.00  0.00    -0.114 C  
HETATM   14  C   UNL     1     -10.029  14.065  66.847  1.00  0.00    -0.263 A  
HETATM   15  N   UNL     1      -9.218  13.402  65.991  1.00  0.00     0.013 NA 
HETATM   16  C   UNL     1     -11.286  14.511  66.491  1.00  0.00    -0.352 A  
HETATM   17  O   UNL     1     -13.027  15.638  67.665  1.00  0.00     2.039 OA 
HETATM   18  C   UNL     1      -9.762  13.213  64.761  1.00  0.00     0.147 A  
HETATM   19  N   UNL     1     -11.849  14.325  65.281  1.00  0.00    -0.360 NA 
HETATM   20  C   UNL     1     -11.042  13.660  64.418  1.00  0.00    -0.364 A  
BRANCH  12  21
HETATM   21  C   UNL     1     -11.193  15.491  69.993  1.00  0.00    -0.315 A  
HETATM   22 CL   UNL     1     -12.289  16.321  74.243  1.00  0.00    -0.650 Cl 
HETATM   23  C   UNL     1     -11.514  17.084  71.768  1.00  0.00     0.734 A  
HETATM   24  C   UNL     1     -11.784  14.748  72.106  1.00  0.00    -0.154 A  
HETATM   25  N   UNL     1     -11.439  14.459  70.827  1.00  0.00    -0.163 NA 
HETATM   26  C   UNL     1     -11.208  16.812  70.433  1.00  0.00     0.205 A  
HETATM   27  C   UNL     1     -11.834  16.033  72.616  1.00  0.00    -0.506 A  
ENDBRANCH  12  21
ENDBRANCH  10  11
ENDBRANCH   7  10
TORSDOF 3
ENDMDL
MODEL      192
REMARK 921   NORMALIZED FREE ENERGY PREDICTED BY IDOCK:    1.84 KCAL/MOL
REMARK 922        TOTAL FREE ENERGY PREDICTED BY IDOCK:    1.35 KCAL/MOL
REMARK 923 INTER-LIGAND FREE ENERGY PREDICTED BY IDOCK:   -0.17 KCAL/MOL
REMARK 924 INTRA-LIGAND FREE ENERGY PREDICTED BY IDOCK:    1.52 KCAL/MOL
REMARK 927      BINDING AFFINITY PREDICTED BY RF-SCORE:    0.00 PKD
ROOT
HETATM    1  C   UNL     1      -7.839  12.871  68.640  1.00  0.00    -0.044 C  
HETATM    2  N   UNL     1      -6.921  12.104  69.480  1.00  0.00     0.034 NA 
HETATM    3  C   UNL     1      -7.633  11.068  70.262  1.00  0.00     1.172 C  
HETATM    4  C   UNL     1      -8.103   9.855  69.438  1.00  0.00    -0.139 C  
HETATM    5  N   UNL     1      -7.003   9.291  68.663  1.00  0.00    -0.062 N  
HETATM    6  C   UNL     1      -6.279  10.259  67.835  1.00  0.00    -0.059 C  
HETATM    7  C   UNL     1      -6.525   8.033  68.971  1.00  0.00    -0.040 C  
HETATM    8  O   UNL     1      -6.950   7.355  69.896  1.00  0.00    -0.057 OA 
HETATM    9  C   UNL     1      -5.841  11.475  68.683  1.00  0.00    -0.042 C  
ENDROOT
BRANCH   7  10
HETATM   10  O   UNL     1      -5.557   7.626  68.116  1.00  0.00    -0.026 OA 
BRANCH  10  11
HETATM   11  C   UNL     1      -5.973   6.698  67.115  1.00  0.00    -0.021 C  
HETATM   12  N   UNL     1      -7.087   5.924  67.636  1.00  0.00    -0.072 N  
HETATM   13  C   UNL     1      -8.280   6.190  66.975  1.00  0.00    -0.106 C  
HETATM   14  C   UNL     1      -6.627   7.507  66.019  1.00  0.00    -0.046 A  
HETATM   15  N   UNL     1      -6.046   8.427  65.215  1.00  0.00    -0.045 NA 
HETATM   16  C   UNL     1      -7.974   7.211  65.964  1.00  0.00    -0.112 A  
HETATM   17  O   UNL     1      -9.367   5.662  67.120  1.00  0.00    -0.113 OA 
HETATM   18  C   UNL     1      -6.911   9.019  64.351  1.00  0.00    -0.085 A  
HETATM   19  N   UNL     1      -8.847   7.777  65.109  1.00  0.00     0.081 NA 
HETATM   20  C   UNL     1      -8.272   8.700  64.299  1.00  0.00    -0.158 A  
BRANCH  12  21
HETATM   21  C   UNL     1      -6.868   4.842  68.494  1.00  0.00    -0.052 A  
HETATM   22 CL   UNL     1      -6.332   1.572  71.490  1.00  0.00    -0.017 Cl 
HETATM   23  C   UNL     1      -5.411   3.291  69.618  1.00  0.00    -0.016 A  
HETATM   24  C   UNL     1      -7.749   3.351  70.032  1.00  0.00    -0.044 A  
HETATM   25  N   UNL     1      -7.951   4.331  69.118  1.00  0.00    -0.061 NA 
HETATM   26  C   UNL     1      -5.588   4.337  68.710  1.00  0.00    -0.013 A  
HETATM   27  C   UNL     1      -6.510   2.805  70.312  1.00  0.00    -0.028 A  
ENDBRANCH  12  21
ENDBRANCH  10  11
ENDBRANCH   7  10
TORSDOF 3
ENDMDL
MODEL      193
REMARK 921   NORMALIZED FREE ENERGY PREDICTED BY IDOCK:    1.89 KCAL/MOL
REMARK 922        TOTAL FREE ENERGY PREDICTED BY IDOCK:    1.41 KCAL/MOL
REMARK 923 INTER-LIGAND FREE ENERGY PREDICTED BY IDOCK:   -0.92 KCAL/MOL
REMARK 924 INTRA-LIGAND FREE ENERGY PREDICTED BY IDOCK:    2.33 KCAL/MOL
REMARK 927      BINDING AFFINITY PREDICTED BY RF-SCORE:    0.00 PKD
ROOT
HETATM    1  C   UNL     1     -11.324   4.364  62.884  1.00  0.00     0.874 C  
HETATM    2  N   UNL     1     -10.627   3.719  63.996  1.00  0.00    -0.273 NA 
HETATM    3  C   UNL     1      -9.509   2.872  63.522  1.00  0.00    -0.099 C  
HETATM    4  C   UNL     1      -8.278   3.656  63.030  1.00  0.00    -0.081 C  
HETATM    5  N   UNL     1      -7.841   4.625  64.030  1.00  0.00    -0.083 N  
HETATM    6  C   UNL     1      -8.893   5.521  64.513  1.00  0.00     0.090 C  
HETATM    7  C   UNL     1      -6.627   4.451  64.664  1.00  0.00    -0.043 C  
HETATM    8  O   UNL     1      -5.888   3.497  64.464  1.00  0.00    -0.017 OA 
HETATM    9  C   UNL     1     -10.124   4.710  64.978  1.00  0.00    -0.002 C  
ENDROOT
BRANCH   7  10
HETATM   10  O   UNL     1      -6.335   5.470  65.506  1.00  0.00    -0.036 OA 
BRANCH  10  11
HETATM   11  C   UNL     1      -6.345   5.143  66.895  1.00  0.00    -0.040 C  
HETATM   12  N   UNL     1      -7.384   5.923  67.547  1.00  0.00    -0.076 N  
HETATM   13  C   UNL     1      -8.433   5.139  68.009  1.00  0.00    -0.100 C  
HETATM   14  C   UNL     1      -6.884   3.735  67.004  1.00  0.00    -0.051 A  
HETATM   15  N   UNL     1      -6.322   2.599  66.531  1.00  0.00    -0.024 NA 
HETATM   16  C   UNL     1      -8.109   3.754  67.640  1.00  0.00    -0.089 A  
HETATM   17  O   UNL     1      -9.409   5.473  68.655  1.00  0.00    -0.119 OA 
HETATM   18  C   UNL     1      -7.073   1.489  66.750  1.00  0.00    -0.046 A  
HETATM   19  N   UNL     1      -8.865   2.665  67.877  1.00  0.00    -0.113 NA 
HETATM   20  C   UNL     1      -8.307   1.522  67.407  1.00  0.00    -0.075 A  
BRANCH  12  21
HETATM   21  C   UNL     1      -7.161   7.257  67.901  1.00  0.00    -0.085 A  
HETATM   22 CL   UNL     1      -6.331  11.401  69.348  1.00  0.00    -0.088 Cl 
HETATM   23  C   UNL     1      -7.922   9.513  68.248  1.00  0.00    -0.094 A  
HETATM   24  C   UNL     1      -5.709   8.835  68.779  1.00  0.00    -0.041 A  
HETATM   25  N   UNL     1      -5.921   7.572  68.333  1.00  0.00    -0.030 NA 
HETATM   26  C   UNL     1      -8.178   8.204  67.833  1.00  0.00    -0.129 A  
HETATM   27  C   UNL     1      -6.671   9.829  68.757  1.00  0.00    -0.050 A  
ENDBRANCH  12  21
ENDBRANCH  10  11
ENDBRANCH   7  10
TORSDOF 3
ENDMDL
MODEL      194
REMARK 921   NORMALIZED FREE ENERGY PREDICTED BY IDOCK:    2.35 KCAL/MOL
REMARK 922        TOTAL FREE ENERGY PREDICTED BY IDOCK:    1.96 KCAL/MOL
REMARK 923 INTER-LIGAND FREE ENERGY PREDICTED BY IDOCK:    0.82 KCAL/MOL
REMARK 924 INTRA-LIGAND FREE ENERGY PREDICTED BY IDOCK:    1.14 KCAL/MOL
REMARK 927      BINDING AFFINITY PREDICTED BY RF-SCORE:    0.00 PKD
ROOT
HETATM    1  C   UNL     1     -10.985   4.187  67.630  1.00  0.00     2.860 C  
HETATM    2  N   UNL     1      -9.563   3.895  67.457  1.00  0.00    -0.186 NA 
HETATM    3  C   UNL     1      -9.088   4.268  66.105  1.00  0.00    -0.133 C  
HETATM    4  C   UNL     1      -8.941   5.784  65.876  1.00  0.00    -0.151 C  
HETATM    5  N   UNL     1      -8.131   6.395  66.924  1.00  0.00    -0.108 N  
HETATM    6  C   UNL     1      -8.571   6.096  68.289  1.00  0.00    -0.116 C  
HETATM    7  C   UNL     1      -6.892   6.917  66.613  1.00  0.00    -0.064 C  
HETATM    8  O   UNL     1      -6.399   6.871  65.494  1.00  0.00    -0.041 OA 
HETATM    9  C   UNL     1      -8.733   4.571  68.483  1.00  0.00    -0.099 C  
ENDROOT
BRANCH   7  10
HETATM   10  O   UNL     1      -6.301   7.512  67.676  1.00  0.00    -0.049 OA 
BRANCH  10  11
HETATM   11  C   UNL     1      -7.188   7.966  68.697  1.00  0.00    -0.081 C  
HETATM   12  N   UNL     1      -6.488   7.923  69.971  1.00  0.00    -0.033 N  
HETATM   13  C   UNL     1      -6.259   9.187  70.499  1.00  0.00    -0.049 C  
HETATM   14  C   UNL     1      -7.372   9.451  68.482  1.00  0.00    -0.079 A  
HETATM   15  N   UNL     1      -7.950  10.064  67.423  1.00  0.00    -0.106 NA 
HETATM   16  C   UNL     1      -6.810  10.146  69.532  1.00  0.00    -0.079 A  
HETATM   17  O   UNL     1      -5.768   9.489  71.572  1.00  0.00    -0.071 OA 
HETATM   18  C   UNL     1      -7.927  11.420  67.500  1.00  0.00    -0.127 A  
HETATM   19  N   UNL     1      -6.785  11.489  69.635  1.00  0.00    -0.114 NA 
HETATM   20  C   UNL     1      -7.363  12.111  68.578  1.00  0.00    -0.105 A  
BRANCH  12  21
HETATM   21  C   UNL     1      -6.355   6.722  70.673  1.00  0.00    -0.043 A  
HETATM   22 CL   UNL     1      -6.019   2.715  72.619  1.00  0.00    -0.008 Cl 
HETATM   23  C   UNL     1      -6.934   5.255  72.491  1.00  0.00    -0.081 A  
HETATM   24  C   UNL     1      -5.467   4.584  70.748  1.00  0.00    -0.008 A  
HETATM   25  N   UNL     1      -5.533   5.793  70.140  1.00  0.00    -0.008 NA 
HETATM   26  C   UNL     1      -7.058   6.491  71.852  1.00  0.00    -0.081 A  
HETATM   27  C   UNL     1      -6.144   4.272  71.913  1.00  0.00    -0.017 A  
ENDBRANCH  12  21
ENDBRANCH  10  11
ENDBRANCH   7  10
TORSDOF 3
ENDMDL
MODEL      195
REMARK 921   NORMALIZED FREE ENERGY PREDICTED BY IDOCK:    2.64 KCAL/MOL
REMARK 922        TOTAL FREE ENERGY PREDICTED BY IDOCK:    2.30 KCAL/MOL
REMARK 923 INTER-LIGAND FREE ENERGY PREDICTED BY IDOCK:   -0.74 KCAL/MOL
REMARK 924 INTRA-LIGAND FREE ENERGY PREDICTED BY IDOCK:    3.03 KCAL/MOL
REMARK 927      BINDING AFFINITY PREDICTED BY RF-SCORE:    0.00 PKD
ROOT
HETATM    1  C   UNL     1     -11.436   4.448  62.870  1.00  0.00     1.088 C  
HETATM    2  N   UNL     1     -10.919   3.873  64.111  1.00  0.00    -0.288 NA 
HETATM    3  C   UNL     1      -9.676   3.103  63.878  1.00  0.00    -0.145 C  
HETATM    4  C   UNL     1      -8.431   3.967  63.603  1.00  0.00    -0.097 C  
HETATM    5  N   UNL     1      -8.258   4.980  64.639  1.00  0.00    -0.122 N  
HETATM    6  C   UNL     1      -9.442   5.805  64.891  1.00  0.00     0.646 C  
HETATM    7  C   UNL     1      -7.176   4.905  65.493  1.00  0.00    -0.072 C  
HETATM    8  O   UNL     1      -6.349   4.004  65.462  1.00  0.00    -0.030 OA 
HETATM    9  C   UNL     1     -10.679   4.912  65.141  1.00  0.00     0.228 C  
ENDROOT
BRANCH   7  10
HETATM   10  O   UNL     1      -7.119   5.956  66.346  1.00  0.00    -0.065 OA 
BRANCH  10  11
HETATM   11  C   UNL     1      -7.171   5.625  67.733  1.00  0.00    -0.072 C  
HETATM   12  N   UNL     1      -8.565   5.547  68.138  1.00  0.00    -0.101 N  
HETATM   13  C   UNL     1      -8.956   4.257  68.471  1.00  0.00    -0.114 C  
HETATM   14  C   UNL     1      -6.721   4.188  67.854  1.00  0.00    -0.047 A  
HETATM   15  N   UNL     1      -5.499   3.681  67.570  1.00  0.00    -0.019 NA 
HETATM   16  C   UNL     1      -7.778   3.403  68.268  1.00  0.00    -0.059 A  
HETATM   17  O   UNL     1     -10.022   3.872  68.914  1.00  0.00    -0.020 OA 
HETATM   18  C   UNL     1      -5.415   2.336  67.740  1.00  0.00    -0.017 A  
HETATM   19  N   UNL     1      -7.714   2.070  68.453  1.00  0.00    -0.053 NA 
HETATM   20  C   UNL     1      -6.492   1.555  68.172  1.00  0.00    -0.025 A  
BRANCH  12  21
HETATM   21  C   UNL     1      -9.293   6.707  68.424  1.00  0.00    -0.123 A  
HETATM   22 CL   UNL     1     -11.315  10.593  69.298  1.00  0.00    -0.316 Cl 
HETATM   23  C   UNL     1     -10.703   8.021  69.864  1.00  0.00    -0.242 A  
HETATM   24  C   UNL     1      -9.832   8.879  67.829  1.00  0.00    -0.166 A  
HETATM   25  N   UNL     1      -9.218   7.709  67.523  1.00  0.00    -0.131 NA 
HETATM   26  C   UNL     1     -10.036   6.824  69.596  1.00  0.00    -0.184 A  
HETATM   27  C   UNL     1     -10.577   9.079  68.976  1.00  0.00    -0.190 A  
ENDBRANCH  12  21
ENDBRANCH  10  11
ENDBRANCH   7  10
TORSDOF 3
ENDMDL
MODEL      196
REMARK 921   NORMALIZED FREE ENERGY PREDICTED BY IDOCK:    2.72 KCAL/MOL
REMARK 922        TOTAL FREE ENERGY PREDICTED BY IDOCK:    2.39 KCAL/MOL
REMARK 923 INTER-LIGAND FREE ENERGY PREDICTED BY IDOCK:   -1.02 KCAL/MOL
REMARK 924 INTRA-LIGAND FREE ENERGY PREDICTED BY IDOCK:    3.41 KCAL/MOL
REMARK 927      BINDING AFFINITY PREDICTED BY RF-SCORE:    0.00 PKD
ROOT
HETATM    1  C   UNL     1     -12.866  13.538  64.323  1.00  0.00     0.168 C  
HETATM    2  N   UNL     1     -12.824  12.098  64.575  1.00  0.00    -0.635 NA 
HETATM    3  C   UNL     1     -11.755  11.437  63.792  1.00  0.00     0.003 C  
HETATM    4  C   UNL     1     -10.328  11.704  64.307  1.00  0.00    -0.322 C  
HETATM    5  N   UNL     1     -10.222  11.407  65.731  1.00  0.00    -0.239 N  
HETATM    6  C   UNL     1     -11.229  12.062  66.569  1.00  0.00    -0.334 C  
HETATM    7  C   UNL     1      -9.443  10.347  66.152  1.00  0.00    -0.181 C  
HETATM    8  O   UNL     1      -8.846   9.601  65.389  1.00  0.00    -0.149 OA 
HETATM    9  C   UNL     1     -12.648  11.797  66.016  1.00  0.00     2.190 C  
ENDROOT
BRANCH   7  10
HETATM   10  O   UNL     1      -9.390  10.250  67.502  1.00  0.00    -0.147 OA 
BRANCH  10  11
HETATM   11  C   UNL     1      -8.139   9.824  68.038  1.00  0.00    -0.105 C  
HETATM   12  N   UNL     1      -7.376   9.181  66.981  1.00  0.00    -0.090 N  
HETATM   13  C   UNL     1      -6.247   9.904  66.618  1.00  0.00    -0.068 C  
HETATM   14  C   UNL     1      -7.331  11.073  68.303  1.00  0.00    -0.088 A  
HETATM   15  N   UNL     1      -7.606  12.060  69.187  1.00  0.00     0.067 NA 
HETATM   16  C   UNL     1      -6.243  11.112  67.455  1.00  0.00    -0.066 A  
HETATM   17  O   UNL     1      -5.372   9.607  65.827  1.00  0.00    -0.041 OA 
HETATM   18  C   UNL     1      -6.708  13.079  69.162  1.00  0.00    -0.087 A  
HETATM   19  N   UNL     1      -5.335  12.106  67.420  1.00  0.00    -0.107 NA 
HETATM   20  C   UNL     1      -5.603  13.098  68.305  1.00  0.00    -0.085 A  
BRANCH  12  21
HETATM   21  C   UNL     1      -7.632   7.855  66.620  1.00  0.00    -0.093 A  
HETATM   22 CL   UNL     1      -8.614   3.742  65.179  1.00  0.00    -0.112 Cl 
HETATM   23  C   UNL     1      -8.562   5.680  67.062  1.00  0.00    -0.109 A  
HETATM   24  C   UNL     1      -7.570   6.225  64.975  1.00  0.00    -0.090 A  
HETATM   25  N   UNL     1      -7.242   7.475  65.384  1.00  0.00    -0.067 NA 
HETATM   26  C   UNL     1      -8.280   6.980  67.487  1.00  0.00    -0.116 A  
HETATM   27  C   UNL     1      -8.224   5.302  65.771  1.00  0.00    -0.119 A  
ENDBRANCH  12  21
ENDBRANCH  10  11
ENDBRANCH   7  10
TORSDOF 3
ENDMDL
MODEL      197
REMARK 921   NORMALIZED FREE ENERGY PREDICTED BY IDOCK:    3.51 KCAL/MOL
REMARK 922        TOTAL FREE ENERGY PREDICTED BY IDOCK:    3.32 KCAL/MOL
REMARK 923 INTER-LIGAND FREE ENERGY PREDICTED BY IDOCK:    3.92 KCAL/MOL
REMARK 924 INTRA-LIGAND FREE ENERGY PREDICTED BY IDOCK:   -0.60 KCAL/MOL
REMARK 927      BINDING AFFINITY PREDICTED BY RF-SCORE:    0.00 PKD
ROOT
HETATM    1  C   UNL     1     -11.825  12.789  62.638  1.00  0.00     1.377 C  
HETATM    2  N   UNL     1     -11.954  14.094  63.286  1.00  0.00    -0.023 NA 
HETATM    3  C   UNL     1     -12.785  14.017  64.508  1.00  0.00    -0.063 C  
HETATM    4  C   UNL     1     -12.097  13.340  65.708  1.00  0.00    -0.441 C  
HETATM    5  N   UNL     1     -10.795  13.943  65.973  1.00  0.00    -0.288 N  
HETATM    6  C   UNL     1      -9.906  14.015  64.810  1.00  0.00     0.148 C  
HETATM    7  C   UNL     1     -10.599  14.660  67.136  1.00  0.00    -0.282 C  
HETATM    8  O   UNL     1     -11.475  14.857  67.967  1.00  0.00    -0.313 OA 
HETATM    9  C   UNL     1     -10.631  14.677  63.616  1.00  0.00     2.807 C  
ENDROOT
BRANCH   7  10
HETATM   10  O   UNL     1      -9.321  15.091  67.267  1.00  0.00    -0.194 OA 
BRANCH  10  11
HETATM   11  C   UNL     1      -8.683  14.757  68.498  1.00  0.00    -0.174 C  
HETATM   12  N   UNL     1      -7.425  14.092  68.202  1.00  0.00    -0.116 N  
HETATM   13  C   UNL     1      -6.319  14.846  68.572  1.00  0.00    -0.093 C  
HETATM   14  C   UNL     1      -8.221  16.058  69.114  1.00  0.00    -0.241 A  
HETATM   15  N   UNL     1      -8.991  17.080  69.555  1.00  0.00     0.276 NA 
HETATM   16  C   UNL     1      -6.842  16.099  69.133  1.00  0.00    -0.196 A  
HETATM   17  O   UNL     1      -5.140  14.546  68.527  1.00  0.00    -0.091 OA 
HETATM   18  C   UNL     1      -8.277  18.137  70.020  1.00  0.00     1.958 A  
HETATM   19  N   UNL     1      -6.114  17.132  69.599  1.00  0.00    -0.236 NA 
HETATM   20  C   UNL     1      -6.879  18.160  70.043  1.00  0.00     0.546 A  
BRANCH  12  21
HETATM   21  C   UNL     1      -7.396  12.736  67.862  1.00  0.00    -0.120 A  
HETATM   22 CL   UNL     1      -6.958   8.405  66.857  1.00  0.00    -0.073 Cl 
HETATM   23  C   UNL     1      -7.727  10.936  66.299  1.00  0.00    -0.147 A  
HETATM   24  C   UNL     1      -6.778  10.582  68.447  1.00  0.00    -0.060 A  
HETATM   25  N   UNL     1      -6.911  11.886  68.792  1.00  0.00    -0.098 NA 
HETATM   26  C   UNL     1      -7.825  12.293  66.613  1.00  0.00     0.140 A  
HETATM   27  C   UNL     1      -7.168  10.066  67.224  1.00  0.00    -0.086 A  
ENDBRANCH  12  21
ENDBRANCH  10  11
ENDBRANCH   7  10
TORSDOF 3
ENDMDL
MODEL      198
REMARK 921   NORMALIZED FREE ENERGY PREDICTED BY IDOCK:    3.78 KCAL/MOL
REMARK 922        TOTAL FREE ENERGY PREDICTED BY IDOCK:    3.63 KCAL/MOL
REMARK 923 INTER-LIGAND FREE ENERGY PREDICTED BY IDOCK:   -0.68 KCAL/MOL
REMARK 924 INTRA-LIGAND FREE ENERGY PREDICTED BY IDOCK:    4.31 KCAL/MOL
REMARK 927      BINDING AFFINITY PREDICTED BY RF-SCORE:    0.00 PKD
ROOT
HETATM    1  C   UNL     1      -6.471  11.375  71.468  1.00  0.00     2.430 C  
HETATM    2  N   UNL     1      -5.366  10.837  70.676  1.00  0.00    -0.083 NA 
HETATM    3  C   UNL     1      -5.287   9.362  70.780  1.00  0.00    -0.032 C  
HETATM    4  C   UNL     1      -6.384   8.608  70.007  1.00  0.00    -0.034 C  
HETATM    5  N   UNL     1      -6.446   9.053  68.619  1.00  0.00    -0.053 N  
HETATM    6  C   UNL     1      -6.564  10.502  68.446  1.00  0.00    -0.055 C  
HETATM    7  C   UNL     1      -6.089   8.184  67.606  1.00  0.00    -0.051 C  
HETATM    8  O   UNL     1      -5.681   7.048  67.801  1.00  0.00    -0.022 OA 
HETATM    9  C   UNL     1      -5.466  11.234  69.251  1.00  0.00    -0.040 C  
ENDROOT
BRANCH   7  10
HETATM   10  O   UNL     1      -6.271   8.722  66.377  1.00  0.00    -0.058 OA 
BRANCH  10  11
HETATM   11  C   UNL     1      -7.315   8.138  65.599  1.00  0.00    -0.076 C  
HETATM   12  N   UNL     1      -8.585   8.410  66.251  1.00  0.00    -0.128 N  
HETATM   13  C   UNL     1      -9.391   9.270  65.516  1.00  0.00    -0.238 C  
HETATM   14  C   UNL     1      -7.421   8.955  64.333  1.00  0.00    -0.106 A  
HETATM   15  N   UNL     1      -6.492   9.090  63.358  1.00  0.00    -0.090 NA 
HETATM   16  C   UNL     1      -8.630   9.622  64.310  1.00  0.00    -0.191 A  
HETATM   17  O   UNL     1     -10.530   9.633  65.747  1.00  0.00    -0.105 OA 
HETATM   18  C   UNL     1      -6.868   9.932  62.361  1.00  0.00    -0.110 A  
HETATM   19  N   UNL     1      -9.027  10.452  63.327  1.00  0.00    -0.207 NA 
HETATM   20  C   UNL     1      -8.101  10.591  62.346  1.00  0.00    -0.184 A  
BRANCH  12  21
HETATM   21  C   UNL     1      -9.012   7.638  67.336  1.00  0.00    -0.126 A  
HETATM   22 CL   UNL     1     -10.518   5.468  70.938  1.00  0.00    -0.314 Cl 
HETATM   23  C   UNL     1      -8.580   6.164  69.188  1.00  0.00    -0.119 A  
HETATM   24  C   UNL     1     -10.746   7.031  68.747  1.00  0.00    -0.194 A  
HETATM   25  N   UNL     1     -10.327   7.689  67.638  1.00  0.00    -0.218 NA 
HETATM   26  C   UNL     1      -8.115   6.876  68.080  1.00  0.00    -0.115 A  
HETATM   27  C   UNL     1      -9.916   6.264  69.544  1.00  0.00    -0.164 A  
ENDBRANCH  12  21
ENDBRANCH  10  11
ENDBRANCH   7  10
TORSDOF 3
ENDMDL
MODEL      199
REMARK 921   NORMALIZED FREE ENERGY PREDICTED BY IDOCK:    4.54 KCAL/MOL
REMARK 922        TOTAL FREE ENERGY PREDICTED BY IDOCK:    4.53 KCAL/MOL
REMARK 923 INTER-LIGAND FREE ENERGY PREDICTED BY IDOCK:   -0.39 KCAL/MOL
REMARK 924 INTRA-LIGAND FREE ENERGY PREDICTED BY IDOCK:    4.92 KCAL/MOL
REMARK 927      BINDING AFFINITY PREDICTED BY RF-SCORE:    0.00 PKD
ROOT
HETATM    1  C   UNL     1     -12.718  12.126  68.261  1.00  0.00     1.898 C  
HETATM    2  N   UNL     1     -11.423  12.702  68.622  1.00  0.00    -0.283 NA 
HETATM    3  C   UNL     1     -10.457  12.617  67.504  1.00  0.00    -0.221 C  
HETATM    4  C   UNL     1     -10.724  13.603  66.352  1.00  0.00    -0.281 C  
HETATM    5  N   UNL     1     -10.859  14.967  66.852  1.00  0.00    -0.310 N  
HETATM    6  C   UNL     1     -11.830  15.128  67.936  1.00  0.00    -0.170 C  
HETATM    7  C   UNL     1      -9.903  15.910  66.529  1.00  0.00    -0.261 C  
HETATM    8  O   UNL     1      -8.907  15.665  65.863  1.00  0.00    -0.279 OA 
HETATM    9  C   UNL     1     -11.552  14.111  69.066  1.00  0.00    -0.304 C  
ENDROOT
BRANCH   7  10
HETATM   10  O   UNL     1     -10.210  17.140  67.007  1.00  0.00    -0.298 OA 
BRANCH  10  11
HETATM   11  C   UNL     1      -9.316  17.658  67.990  1.00  0.00    -0.274 C  
HETATM   12  N   UNL     1      -9.007  16.600  68.938  1.00  0.00    -0.254 N  
HETATM   13  C   UNL     1      -7.681  16.192  68.873  1.00  0.00    -0.207 C  
HETATM   14  C   UNL     1      -7.988  17.870  67.301  1.00  0.00    -0.211 A  
HETATM   15  N   UNL     1      -7.709  18.733  66.297  1.00  0.00    -0.274 NA 
HETATM   16  C   UNL     1      -7.052  16.995  67.815  1.00  0.00    -0.148 A  
HETATM   17  O   UNL     1      -7.094  15.388  69.574  1.00  0.00    -0.175 OA 
HETATM   18  C   UNL     1      -6.427  18.660  65.857  1.00  0.00    -0.243 A  
HETATM   19  N   UNL     1      -5.773  16.913  67.401  1.00  0.00    -0.141 NA 
HETATM   20  C   UNL     1      -5.486  17.776  66.396  1.00  0.00    -0.187 A  
BRANCH  12  21
HETATM   21  C   UNL     1      -9.897  16.281  69.969  1.00  0.00     0.332 A  
HETATM   22 CL   UNL     1     -12.779  14.943  73.108  1.00  0.00    -0.557 Cl 
HETATM   23  C   UNL     1     -11.894  16.691  71.246  1.00  0.00     0.331 A  
HETATM   24  C   UNL     1     -10.545  14.769  71.599  1.00  0.00     1.402 A  
HETATM   25  N   UNL     1      -9.641  15.153  70.665  1.00  0.00     0.738 NA 
HETATM   26  C   UNL     1     -11.004  17.079  70.242  1.00  0.00     0.431 A  
HETATM   27  C   UNL     1     -11.675  15.499  71.920  1.00  0.00    -0.446 A  
ENDBRANCH  12  21
ENDBRANCH  10  11
ENDBRANCH   7  10
TORSDOF 3
ENDMDL
MODEL      200
REMARK 921   NORMALIZED FREE ENERGY PREDICTED BY IDOCK:    5.80 KCAL/MOL
REMARK 922        TOTAL FREE ENERGY PREDICTED BY IDOCK:    6.00 KCAL/MOL
REMARK 923 INTER-LIGAND FREE ENERGY PREDICTED BY IDOCK:    1.93 KCAL/MOL
REMARK 924 INTRA-LIGAND FREE ENERGY PREDICTED BY IDOCK:    4.07 KCAL/MOL
REMARK 927      BINDING AFFINITY PREDICTED BY RF-SCORE:    0.00 PKD
ROOT
HETATM    1  C   UNL     1      -8.438  11.093  63.671  1.00  0.00     0.294 C  
HETATM    2  N   UNL     1      -9.227  10.499  64.749  1.00  0.00    -0.209 NA 
HETATM    3  C   UNL     1      -8.427  10.335  65.984  1.00  0.00    -0.140 C  
HETATM    4  C   UNL     1      -8.138  11.646  66.738  1.00  0.00    -0.150 C  
HETATM    5  N   UNL     1      -9.369  12.391  66.982  1.00  0.00    -0.198 N  
HETATM    6  C   UNL     1     -10.190  12.622  65.791  1.00  0.00    -0.272 C  
HETATM    7  C   UNL     1      -9.828  12.546  68.275  1.00  0.00    -0.227 C  
HETATM    8  O   UNL     1      -9.276  12.062  69.253  1.00  0.00     0.397 OA 
HETATM    9  C   UNL     1     -10.443  11.293  65.043  1.00  0.00    -0.298 C  
ENDROOT
BRANCH   7  10
HETATM   10  O   UNL     1     -10.937  13.321  68.338  1.00  0.00    -0.244 OA 
BRANCH  10  11
HETATM   11  C   UNL     1     -10.723  14.718  68.138  1.00  0.00    -0.247 C  
HETATM   12  N   UNL     1      -9.338  14.922  67.745  1.00  0.00    -0.192 N  
HETATM   13  C   UNL     1      -9.213  15.366  66.435  1.00  0.00    -0.305 C  
HETATM   14  C   UNL     1     -11.472  15.095  66.881  1.00  0.00    -0.214 A  
HETATM   15  N   UNL     1     -12.810  15.063  66.679  1.00  0.00     1.092 NA 
HETATM   16  C   UNL     1     -10.576  15.453  65.895  1.00  0.00    -0.339 A  
HETATM   17  O   UNL     1      -8.207  15.697  65.834  1.00  0.00     0.260 OA 
HETATM   18  C   UNL     1     -13.179  15.423  65.422  1.00  0.00     1.640 A  
HETATM   19  N   UNL     1     -10.920  15.823  64.646  1.00  0.00    -0.497 NA 
HETATM   20  C   UNL     1     -12.259  15.795  64.436  1.00  0.00     0.079 A  
BRANCH  12  21
HETATM   21  C   UNL     1      -8.319  14.941  68.701  1.00  0.00    -0.164 A  
HETATM   22 CL   UNL     1      -5.153  15.336  71.829  1.00  0.00    -0.145 Cl 
HETATM   23  C   UNL     1      -6.011  14.710  69.343  1.00  0.00    -0.101 A  
HETATM   24  C   UNL     1      -7.679  15.427  70.874  1.00  0.00     2.103 A  
HETATM   25  N   UNL     1      -8.667  15.302  69.955  1.00  0.00     0.000 NA 
HETATM   26  C   UNL     1      -7.005  14.625  68.365  1.00  0.00    -0.113 A  
HETATM   27  C   UNL     1      -6.350  15.145  70.616  1.00  0.00     0.117 A  
ENDBRANCH  12  21
ENDBRANCH  10  11
ENDBRANCH   7  10
TORSDOF 3
ENDMDL
MODEL      201
REMARK 921   NORMALIZED FREE ENERGY PREDICTED BY IDOCK:    6.05 KCAL/MOL
REMARK 922        TOTAL FREE ENERGY PREDICTED BY IDOCK:    6.31 KCAL/MOL
REMARK 923 INTER-LIGAND FREE ENERGY PREDICTED BY IDOCK:    4.64 KCAL/MOL
REMARK 924 INTRA-LIGAND FREE ENERGY PREDICTED BY IDOCK:    1.67 KCAL/MOL
REMARK 927      BINDING AFFINITY PREDICTED BY RF-SCORE:    0.00 PKD
ROOT
HETATM    1  C   UNL     1      -8.037  19.795  68.635  1.00  0.00    -0.217 C  
HETATM    2  N   UNL     1      -9.224  18.941  68.665  1.00  0.00    -0.354 NA 
HETATM    3  C   UNL     1      -9.948  18.968  67.373  1.00  0.00    -0.342 C  
HETATM    4  C   UNL     1      -9.255  18.193  66.237  1.00  0.00    -0.199 C  
HETATM    5  N   UNL     1      -8.934  16.832  66.652  1.00  0.00    -0.233 N  
HETATM    6  C   UNL     1      -8.183  16.737  67.906  1.00  0.00    -0.187 C  
HETATM    7  C   UNL     1      -9.584  15.766  66.062  1.00  0.00    -0.353 C  
HETATM    8  O   UNL     1     -10.458  15.891  65.216  1.00  0.00    -0.385 OA 
HETATM    9  C   UNL     1      -8.888  17.542  69.021  1.00  0.00    -0.033 C  
ENDROOT
BRANCH   7  10
HETATM   10  O   UNL     1      -9.121  14.572  66.503  1.00  0.00    -0.258 OA 
BRANCH  10  11
HETATM   11  C   UNL     1     -10.087  13.735  67.136  1.00  0.00    -0.241 C  
HETATM   12  N   UNL     1      -9.527  13.247  68.386  1.00  0.00    -0.202 N  
HETATM   13  C   UNL     1     -10.180  13.757  69.501  1.00  0.00     0.463 C  
HETATM   14  C   UNL     1     -11.199  14.640  67.614  1.00  0.00    -0.321 A  
HETATM   15  N   UNL     1     -12.039  15.384  66.857  1.00  0.00     0.368 NA 
HETATM   16  C   UNL     1     -11.226  14.654  68.994  1.00  0.00    -0.269 A  
HETATM   17  O   UNL     1     -10.004  13.491  70.676  1.00  0.00     3.216 OA 
HETATM   18  C   UNL     1     -12.909  16.131  67.585  1.00  0.00     3.132 A  
HETATM   19  N   UNL     1     -12.087  15.379  69.735  1.00  0.00    -0.350 NA 
HETATM   20  C   UNL     1     -12.933  16.126  68.983  1.00  0.00     2.087 A  
BRANCH  12  21
HETATM   21  C   UNL     1      -8.639  12.167  68.398  1.00  0.00    -0.141 A  
HETATM   22 CL   UNL     1      -5.694   8.820  68.113  1.00  0.00    -0.038 Cl 
HETATM   23  C   UNL     1      -8.165   9.814  68.572  1.00  0.00    -0.106 A  
HETATM   24  C   UNL     1      -6.477  11.405  68.062  1.00  0.00    -0.057 A  
HETATM   25  N   UNL     1      -7.340  12.446  68.157  1.00  0.00    -0.100 NA 
HETATM   26  C   UNL     1      -9.082  10.867  68.623  1.00  0.00    -0.175 A  
HETATM   27  C   UNL     1      -6.841  10.085  68.260  1.00  0.00    -0.063 A  
ENDBRANCH  12  21
ENDBRANCH  10  11
ENDBRANCH   7  10
TORSDOF 3
ENDMDL
MODEL      202
REMARK 921   NORMALIZED FREE ENERGY PREDICTED BY IDOCK:    6.65 KCAL/MOL
REMARK 922        TOTAL FREE ENERGY PREDICTED BY IDOCK:    7.01 KCAL/MOL
REMARK 923 INTER-LIGAND FREE ENERGY PREDICTED BY IDOCK:    4.83 KCAL/MOL
REMARK 924 INTRA-LIGAND FREE ENERGY PREDICTED BY IDOCK:    2.19 KCAL/MOL
REMARK 927      BINDING AFFINITY PREDICTED BY RF-SCORE:    0.00 PKD
ROOT
HETATM    1  C   UNL     1      -8.267  11.687  69.240  1.00  0.00     0.374 C  
HETATM    2  N   UNL     1      -9.421  12.451  68.766  1.00  0.00     0.010 NA 
HETATM    3  C   UNL     1     -10.236  12.963  69.891  1.00  0.00     1.714 C  
HETATM    4  C   UNL     1      -9.602  14.140  70.655  1.00  0.00     3.068 C  
HETATM    5  N   UNL     1      -9.207  15.206  69.740  1.00  0.00    -0.086 N  
HETATM    6  C   UNL     1      -8.365  14.772  68.623  1.00  0.00    -0.165 C  
HETATM    7  C   UNL     1      -9.863  16.420  69.782  1.00  0.00     0.088 C  
HETATM    8  O   UNL     1     -10.799  16.659  70.532  1.00  0.00    -0.154 OA 
HETATM    9  C   UNL     1      -9.014  13.575  67.890  1.00  0.00    -0.200 C  
ENDROOT
BRANCH   7  10
HETATM   10  O   UNL     1      -9.331  17.323  68.924  1.00  0.00    -0.257 OA 
BRANCH  10  11
HETATM   11  C   UNL     1     -10.131  17.632  67.783  1.00  0.00    -0.338 C  
HETATM   12  N   UNL     1      -9.346  17.381  66.586  1.00  0.00    -0.256 N  
HETATM   13  C   UNL     1      -9.832  16.315  65.840  1.00  0.00    -0.334 C  
HETATM   14  C   UNL     1     -11.196  16.564  67.699  1.00  0.00    -0.038 A  
HETATM   15  N   UNL     1     -12.190  16.319  68.584  1.00  0.00     0.341 NA 
HETATM   16  C   UNL     1     -10.996  15.795  66.570  1.00  0.00    -0.165 A  
HETATM   17  O   UNL     1      -9.449  15.901  64.761  1.00  0.00     0.366 OA 
HETATM   18  C   UNL     1     -12.968  15.257  68.250  1.00  0.00     2.072 A  
HETATM   19  N   UNL     1     -11.760  14.745  66.214  1.00  0.00    -0.308 NA 
HETATM   20  C   UNL     1     -12.759  14.495  67.096  1.00  0.00     0.803 A  
BRANCH  12  21
HETATM   21  C   UNL     1      -8.409  18.317  66.136  1.00  0.00    -0.129 A  
HETATM   22 CL   UNL     1      -5.189  21.171  64.936  1.00  0.00    -0.236 Cl 
HETATM   23  C   UNL     1      -7.709  20.580  65.716  1.00  0.00     0.063 A  
HETATM   24  C   UNL     1      -6.253  18.731  65.397  1.00  0.00    -0.282 A  
HETATM   25  N   UNL     1      -7.212  17.836  65.740  1.00  0.00    -0.495 NA 
HETATM   26  C   UNL     1      -8.695  19.679  66.123  1.00  0.00    -0.361 A  
HETATM   27  C   UNL     1      -6.454  20.099  65.371  1.00  0.00    -0.265 A  
ENDBRANCH  12  21
ENDBRANCH  10  11
ENDBRANCH   7  10
TORSDOF 3
ENDMDL
MODEL      203
REMARK 921   NORMALIZED FREE ENERGY PREDICTED BY IDOCK:    6.88 KCAL/MOL
REMARK 922        TOTAL FREE ENERGY PREDICTED BY IDOCK:    7.28 KCAL/MOL
REMARK 923 INTER-LIGAND FREE ENERGY PREDICTED BY IDOCK:    4.15 KCAL/MOL
REMARK 924 INTRA-LIGAND FREE ENERGY PREDICTED BY IDOCK:    3.13 KCAL/MOL
REMARK 927      BINDING AFFINITY PREDICTED BY RF-SCORE:    0.00 PKD
ROOT
HETATM    1  C   UNL     1     -12.246  13.184  68.224  1.00  0.00    -0.026 C  
HETATM    2  N   UNL     1     -11.807  12.038  69.020  1.00  0.00    -0.320 NA 
HETATM    3  C   UNL     1     -12.681  10.861  68.811  1.00  0.00     1.327 C  
HETATM    4  C   UNL     1     -12.493  10.160  67.453  1.00  0.00     5.491 C  
HETATM    5  N   UNL     1     -11.088   9.843  67.217  1.00  0.00    -0.121 N  
HETATM    6  C   UNL     1     -10.172  10.976  67.370  1.00  0.00    -0.195 C  
HETATM    7  C   UNL     1     -10.682   8.524  67.185  1.00  0.00    -0.139 C  
HETATM    8  O   UNL     1     -11.433   7.579  67.378  1.00  0.00     0.354 OA 
HETATM    9  C   UNL     1     -10.399  11.675  68.730  1.00  0.00    -0.195 C  
ENDROOT
BRANCH   7  10
HETATM   10  O   UNL     1      -9.367   8.398  66.884  1.00  0.00    -0.154 OA 
BRANCH  10  11
HETATM   11  C   UNL     1      -8.635   9.619  66.804  1.00  0.00    -0.134 C  
HETATM   12  N   UNL     1      -7.250   9.353  67.154  1.00  0.00    -0.086 N  
HETATM   13  C   UNL     1      -6.385   9.508  66.079  1.00  0.00    -0.069 C  
HETATM   14  C   UNL     1      -8.534   9.969  65.337  1.00  0.00    -0.151 A  
HETATM   15  N   UNL     1      -9.544  10.282  64.493  1.00  0.00    -0.294 NA 
HETATM   16  C   UNL     1      -7.218   9.882  64.928  1.00  0.00    -0.136 A  
HETATM   17  O   UNL     1      -5.170   9.432  66.059  1.00  0.00    -0.035 OA 
HETATM   18  C   UNL     1      -9.137  10.507  63.217  1.00  0.00    -0.254 A  
HETATM   19  N   UNL     1      -6.791  10.111  63.671  1.00  0.00    -0.129 NA 
HETATM   20  C   UNL     1      -7.798  10.426  62.820  1.00  0.00    -0.146 A  
BRANCH  12  21
HETATM   21  C   UNL     1      -6.858   9.249  68.493  1.00  0.00    -0.062 A  
HETATM   22 CL   UNL     1      -5.901   8.728  72.825  1.00  0.00    -0.079 Cl 
HETATM   23  C   UNL     1      -6.246  10.229  70.603  1.00  0.00    -0.093 A  
HETATM   24  C   UNL     1      -6.508   7.884  70.331  1.00  0.00    -0.037 A  
HETATM   25  N   UNL     1      -6.785   8.004  69.010  1.00  0.00    -0.051 NA 
HETATM   26  C   UNL     1      -6.582  10.380  69.256  1.00  0.00    -0.056 A  
HETATM   27  C   UNL     1      -6.235   8.958  71.159  1.00  0.00    -0.057 A  
ENDBRANCH  12  21
ENDBRANCH  10  11
ENDBRANCH   7  10
TORSDOF 3
ENDMDL
MODEL      204
REMARK 921   NORMALIZED FREE ENERGY PREDICTED BY IDOCK:    7.74 KCAL/MOL
REMARK 922        TOTAL FREE ENERGY PREDICTED BY IDOCK:    8.30 KCAL/MOL
REMARK 923 INTER-LIGAND FREE ENERGY PREDICTED BY IDOCK:    2.31 KCAL/MOL
REMARK 924 INTRA-LIGAND FREE ENERGY PREDICTED BY IDOCK:    5.99 KCAL/MOL
REMARK 927      BINDING AFFINITY PREDICTED BY RF-SCORE:    0.00 PKD
ROOT
HETATM    1  C   UNL     1     -14.121  12.031  70.008  1.00  0.00     5.708 C  
HETATM    2  N   UNL     1     -12.700  11.847  70.301  1.00  0.00     0.025 NA 
HETATM    3  C   UNL     1     -11.909  11.649  69.065  1.00  0.00    -0.328 C  
HETATM    4  C   UNL     1     -11.707  12.925  68.226  1.00  0.00    -0.350 C  
HETATM    5  N   UNL     1     -11.177  14.010  69.043  1.00  0.00    -0.265 N  
HETATM    6  C   UNL     1     -11.938  14.284  70.265  1.00  0.00    -0.329 C  
HETATM    7  C   UNL     1      -9.898  14.477  68.813  1.00  0.00    -0.220 C  
HETATM    8  O   UNL     1      -9.147  14.007  67.971  1.00  0.00    -0.175 OA 
HETATM    9  C   UNL     1     -12.146  12.983  71.074  1.00  0.00     0.018 C  
ENDROOT
BRANCH   7  10
HETATM   10  O   UNL     1      -9.584  15.531  69.604  1.00  0.00    -0.274 OA 
BRANCH  10  11
HETATM   11  C   UNL     1      -8.272  16.063  69.427  1.00  0.00    -0.135 C  
HETATM   12  N   UNL     1      -7.539  15.193  68.521  1.00  0.00    -0.115 N  
HETATM   13  C   UNL     1      -7.256  15.803  67.306  1.00  0.00    -0.219 C  
HETATM   14  C   UNL     1      -8.421  17.325  68.610  1.00  0.00    -0.260 A  
HETATM   15  N   UNL     1      -9.056  18.466  68.966  1.00  0.00    -0.137 NA 
HETATM   16  C   UNL     1      -7.839  17.149  67.372  1.00  0.00    -0.172 A  
HETATM   17  O   UNL     1      -6.601  15.376  66.372  1.00  0.00     0.745 OA 
HETATM   18  C   UNL     1      -9.056  19.414  67.993  1.00  0.00    -0.328 A  
HETATM   19  N   UNL     1      -7.818  18.079  66.397  1.00  0.00    -0.270 NA 
HETATM   20  C   UNL     1      -8.452  19.226  66.746  1.00  0.00    -0.305 A  
BRANCH  12  21
HETATM   21  C   UNL     1      -6.957  14.008  68.982  1.00  0.00    -0.112 A  
HETATM   22 CL   UNL     1      -5.377  10.185  70.668  1.00  0.00    -0.052 Cl 
HETATM   23  C   UNL     1      -5.142  12.791  69.989  1.00  0.00    -0.086 A  
HETATM   24  C   UNL     1      -7.214  11.757  69.464  1.00  0.00     0.165 A  
HETATM   25  N   UNL     1      -7.720  12.896  68.929  1.00  0.00     0.021 NA 
HETATM   26  C   UNL     1      -5.662  13.988  69.492  1.00  0.00    -0.092 A  
HETATM   27  C   UNL     1      -5.944  11.659  70.000  1.00  0.00    -0.152 A  
ENDBRANCH  12  21
ENDBRANCH  10  11
ENDBRANCH   7  10
TORSDOF 3
ENDMDL
MODEL      205
REMARK 921   NORMALIZED FREE ENERGY PREDICTED BY IDOCK:    9.23 KCAL/MOL
REMARK 922        TOTAL FREE ENERGY PREDICTED BY IDOCK:   10.04 KCAL/MOL
REMARK 923 INTER-LIGAND FREE ENERGY PREDICTED BY IDOCK:    7.15 KCAL/MOL
REMARK 924 INTRA-LIGAND FREE ENERGY PREDICTED BY IDOCK:    2.89 KCAL/MOL
REMARK 927      BINDING AFFINITY PREDICTED BY RF-SCORE:    0.00 PKD
ROOT
HETATM    1  C   UNL     1     -11.232  20.997  65.797  1.00  0.00     3.402 C  
HETATM    2  N   UNL     1     -11.198  20.585  67.200  1.00  0.00     1.172 NA 
HETATM    3  C   UNL     1     -12.332  19.694  67.534  1.00  0.00     3.597 C  
HETATM    4  C   UNL     1     -12.210  18.265  66.972  1.00  0.00     4.147 C  
HETATM    5  N   UNL     1     -10.927  17.670  67.331  1.00  0.00    -0.160 N  
HETATM    6  C   UNL     1      -9.758  18.486  66.991  1.00  0.00    -0.310 C  
HETATM    7  C   UNL     1     -10.890  16.599  68.202  1.00  0.00    -0.348 C  
HETATM    8  O   UNL     1     -11.884  16.123  68.733  1.00  0.00    -0.339 OA 
HETATM    9  C   UNL     1      -9.919  19.919  67.546  1.00  0.00    -0.417 C  
ENDROOT
BRANCH   7  10
HETATM   10  O   UNL     1      -9.636  16.118  68.374  1.00  0.00    -0.202 OA 
BRANCH  10  11
HETATM   11  C   UNL     1      -9.078  15.439  67.249  1.00  0.00    -0.206 C  
HETATM   12  N   UNL     1      -7.637  15.628  67.262  1.00  0.00    -0.194 N  
HETATM   13  C   UNL     1      -6.944  14.450  67.507  1.00  0.00    -0.159 C  
HETATM   14  C   UNL     1      -9.211  13.960  67.526  1.00  0.00    -0.205 A  
HETATM   15  N   UNL     1     -10.352  13.243  67.651  1.00  0.00    -0.228 NA 
HETATM   16  C   UNL     1      -7.959  13.403  67.691  1.00  0.00    -0.174 A  
HETATM   17  O   UNL     1      -5.742  14.258  67.510  1.00  0.00    -0.346 OA 
HETATM   18  C   UNL     1     -10.144  11.934  67.944  1.00  0.00    -0.192 A  
HETATM   19  N   UNL     1      -7.728  12.106  67.971  1.00  0.00    -0.123 NA 
HETATM   20  C   UNL     1      -8.868  11.382  68.096  1.00  0.00    -0.162 A  
BRANCH  12  21
HETATM   21  C   UNL     1      -7.067  16.812  66.783  1.00  0.00    -0.235 A  
HETATM   22 CL   UNL     1      -5.366  20.505  64.932  1.00  0.00    -0.199 Cl 
HETATM   23  C   UNL     1      -5.182  18.267  66.437  1.00  0.00    -0.179 A  
HETATM   24  C   UNL     1      -7.328  18.751  65.542  1.00  0.00     0.057 A  
HETATM   25  N   UNL     1      -7.881  17.647  66.103  1.00  0.00    -0.455 NA 
HETATM   26  C   UNL     1      -5.719  17.097  66.980  1.00  0.00    -0.205 A  
HETATM   27  C   UNL     1      -5.996  19.097  65.681  1.00  0.00    -0.191 A  
ENDBRANCH  12  21
ENDBRANCH  10  11
ENDBRANCH   7  10
TORSDOF 3
ENDMDL
MODEL      206
REMARK 921   NORMALIZED FREE ENERGY PREDICTED BY IDOCK:    9.28 KCAL/MOL
REMARK 922        TOTAL FREE ENERGY PREDICTED BY IDOCK:   10.10 KCAL/MOL
REMARK 923 INTER-LIGAND FREE ENERGY PREDICTED BY IDOCK:    2.28 KCAL/MOL
REMARK 924 INTRA-LIGAND FREE ENERGY PREDICTED BY IDOCK:    7.81 KCAL/MOL
REMARK 927      BINDING AFFINITY PREDICTED BY RF-SCORE:    0.00 PKD
ROOT
HETATM    1  C   UNL     1      -8.458  11.118  63.701  1.00  0.00     0.294 C  
HETATM    2  N   UNL     1      -9.305  10.475  64.706  1.00  0.00    -0.217 NA 
HETATM    3  C   UNL     1      -8.588  10.295  65.989  1.00  0.00    -0.145 C  
HETATM    4  C   UNL     1      -8.386  11.592  66.795  1.00  0.00    -0.165 C  
HETATM    5  N   UNL     1      -9.649  12.299  66.972  1.00  0.00    -0.203 N  
HETATM    6  C   UNL     1     -10.392  12.544  65.733  1.00  0.00    -0.265 C  
HETATM    7  C   UNL     1     -10.201  12.408  68.233  1.00  0.00    -0.229 C  
HETATM    8  O   UNL     1      -9.706  11.909  69.234  1.00  0.00     0.210 OA 
HETATM    9  C   UNL     1     -10.559  11.231  64.934  1.00  0.00    -0.300 C  
ENDROOT
BRANCH   7  10
HETATM   10  O   UNL     1     -11.331  13.154  68.239  1.00  0.00    -0.260 OA 
BRANCH  10  11
HETATM   11  C   UNL     1     -11.138  14.563  68.122  1.00  0.00    -0.266 C  
HETATM   12  N   UNL     1     -10.662  15.072  69.398  1.00  0.00    -0.253 N  
HETATM   13  C   UNL     1      -9.354  15.534  69.337  1.00  0.00    -0.279 C  
HETATM   14  C   UNL     1      -9.936  14.762  67.228  1.00  0.00    -0.231 A  
HETATM   15  N   UNL     1      -9.816  14.431  65.921  1.00  0.00    -0.316 NA 
HETATM   16  C   UNL     1      -8.901  15.313  67.957  1.00  0.00    -0.169 A  
HETATM   17  O   UNL     1      -8.696  16.082  70.203  1.00  0.00     0.545 OA 
HETATM   18  C   UNL     1      -8.591  14.699  65.402  1.00  0.00     2.621 A  
HETATM   19  N   UNL     1      -7.681  15.596  67.460  1.00  0.00    -0.152 NA 
HETATM   20  C   UNL     1      -7.555  15.268  66.150  1.00  0.00     1.864 A  
BRANCH  12  21
HETATM   21  C   UNL     1     -11.554  15.320  70.446  1.00  0.00    -0.308 A  
HETATM   22 CL   UNL     1     -14.226  15.866  73.984  1.00  0.00     2.435 Cl 
HETATM   23  C   UNL     1     -13.779  15.415  71.357  1.00  0.00    -0.591 A  
HETATM   24  C   UNL     1     -11.853  15.786  72.695  1.00  0.00    -0.491 A  
HETATM   25  N   UNL     1     -11.014  15.642  71.640  1.00  0.00    -0.121 NA 
HETATM   26  C   UNL     1     -12.930  15.212  70.267  1.00  0.00    -0.220 A  
HETATM   27  C   UNL     1     -13.229  15.682  72.602  1.00  0.00    -0.502 A  
ENDBRANCH  12  21
ENDBRANCH  10  11
ENDBRANCH   7  10
TORSDOF 3
ENDMDL
MODEL      207
REMARK 921   NORMALIZED FREE ENERGY PREDICTED BY IDOCK:   12.12 KCAL/MOL
REMARK 922        TOTAL FREE ENERGY PREDICTED BY IDOCK:   13.44 KCAL/MOL
REMARK 923 INTER-LIGAND FREE ENERGY PREDICTED BY IDOCK:    7.20 KCAL/MOL
REMARK 924 INTRA-LIGAND FREE ENERGY PREDICTED BY IDOCK:    6.24 KCAL/MOL
REMARK 927      BINDING AFFINITY PREDICTED BY RF-SCORE:    0.00 PKD
ROOT
HETATM    1  C   UNL     1     -13.802  12.412  70.508  1.00  0.00     2.861 C  
HETATM    2  N   UNL     1     -12.554  11.750  70.885  1.00  0.00    -0.333 NA 
HETATM    3  C   UNL     1     -11.866  11.171  69.708  1.00  0.00    -0.349 C  
HETATM    4  C   UNL     1     -11.195  12.207  68.787  1.00  0.00    -0.264 C  
HETATM    5  N   UNL     1     -10.320  13.093  69.548  1.00  0.00     0.463 N  
HETATM    6  C   UNL     1     -10.951  13.730  70.706  1.00  0.00     1.426 C  
HETATM    7  C   UNL     1      -8.954  13.040  69.349  1.00  0.00     1.259 C  
HETATM    8  O   UNL     1      -8.411  12.258  68.582  1.00  0.00    -0.108 OA 
HETATM    9  C   UNL     1     -11.637  12.670  71.598  1.00  0.00     2.701 C  
ENDROOT
BRANCH   7  10
HETATM   10  O   UNL     1      -8.292  13.973  70.073  1.00  0.00     1.095 OA 
BRANCH  10  11
HETATM   11  C   UNL     1      -6.874  13.987  69.908  1.00  0.00     0.071 C  
HETATM   12  N   UNL     1      -6.495  12.860  69.072  1.00  0.00    -0.098 N  
HETATM   13  C   UNL     1      -6.001  13.253  67.834  1.00  0.00    -0.138 C  
HETATM   14  C   UNL     1      -6.552  15.168  69.022  1.00  0.00    -0.113 A  
HETATM   15  N   UNL     1      -6.737  16.480  69.298  1.00  0.00    -0.210 NA 
HETATM   16  C   UNL     1      -6.061  14.721  67.812  1.00  0.00    -0.125 A  
HETATM   17  O   UNL     1      -5.535  12.565  66.945  1.00  0.00    -0.342 OA 
HETATM   18  C   UNL     1      -6.387  17.305  68.277  1.00  0.00    -0.161 A  
HETATM   19  N   UNL     1      -5.698  15.521  66.791  1.00  0.00     0.341 NA 
HETATM   20  C   UNL     1      -5.880  16.837  67.061  1.00  0.00    -0.170 A  
BRANCH  12  21
HETATM   21  C   UNL     1      -6.383  11.575  69.611  1.00  0.00    -0.133 A  
HETATM   22 CL   UNL     1      -6.296   7.550  71.547  1.00  0.00    -0.036 Cl 
HETATM   23  C   UNL     1      -5.130   9.842  70.715  1.00  0.00    -0.044 A  
HETATM   24  C   UNL     1      -7.442   9.608  70.226  1.00  0.00    -0.158 A  
HETATM   25  N   UNL     1      -7.501  10.818  69.616  1.00  0.00    -0.119 NA 
HETATM   26  C   UNL     1      -5.180  11.113  70.138  1.00  0.00    -0.062 A  
HETATM   27  C   UNL     1      -6.290   9.085  70.784  1.00  0.00    -0.055 A  
ENDBRANCH  12  21
ENDBRANCH  10  11
ENDBRANCH   7  10
TORSDOF 3
ENDMDL
MODEL      208
REMARK 921   NORMALIZED FREE ENERGY PREDICTED BY IDOCK:   12.37 KCAL/MOL
REMARK 922        TOTAL FREE ENERGY PREDICTED BY IDOCK:   13.73 KCAL/MOL
REMARK 923 INTER-LIGAND FREE ENERGY PREDICTED BY IDOCK:    7.69 KCAL/MOL
REMARK 924 INTRA-LIGAND FREE ENERGY PREDICTED BY IDOCK:    6.04 KCAL/MOL
REMARK 927      BINDING AFFINITY PREDICTED BY RF-SCORE:    0.00 PKD
ROOT
HETATM    1  C   UNL     1     -13.800  12.405  70.501  1.00  0.00     2.861 C  
HETATM    2  N   UNL     1     -12.558  11.704  70.825  1.00  0.00    -0.307 NA 
HETATM    3  C   UNL     1     -11.981  11.039  69.635  1.00  0.00    -0.353 C  
HETATM    4  C   UNL     1     -11.332  11.998  68.619  1.00  0.00    -0.277 C  
HETATM    5  N   UNL     1     -10.368  12.877  69.272  1.00  0.00     0.201 N  
HETATM    6  C   UNL     1     -10.888  13.597  70.437  1.00  0.00     1.124 C  
HETATM    7  C   UNL     1      -9.024  12.751  68.983  1.00  0.00     0.523 C  
HETATM    8  O   UNL     1      -8.570  11.909  68.221  1.00  0.00    -0.154 OA 
HETATM    9  C   UNL     1     -11.554  12.614  71.427  1.00  0.00     2.101 C  
ENDROOT
BRANCH   7  10
HETATM   10  O   UNL     1      -8.272  13.686  69.612  1.00  0.00     0.754 OA 
BRANCH  10  11
HETATM   11  C   UNL     1      -6.871  13.630  69.345  1.00  0.00    -0.022 C  
HETATM   12  N   UNL     1      -6.666  13.808  67.917  1.00  0.00    -0.141 N  
HETATM   13  C   UNL     1      -6.026  15.003  67.613  1.00  0.00    -0.066 C  
HETATM   14  C   UNL     1      -6.270  14.892  69.917  1.00  0.00    -0.149 A  
HETATM   15  N   UNL     1      -6.214  15.263  71.217  1.00  0.00     0.486 NA 
HETATM   16  C   UNL     1      -5.798  15.688  68.892  1.00  0.00    -0.103 A  
HETATM   17  O   UNL     1      -5.647  15.413  66.531  1.00  0.00     0.883 OA 
HETATM   18  C   UNL     1      -5.645  16.481  71.412  1.00  0.00     0.472 A  
HETATM   19  N   UNL     1      -5.222  16.894  69.063  1.00  0.00    -0.132 NA 
HETATM   20  C   UNL     1      -5.161  17.271  70.364  1.00  0.00    -0.246 A  
BRANCH  12  21
HETATM   21  C   UNL     1      -6.840  12.742  67.030  1.00  0.00     0.190 A  
HETATM   22 CL   UNL     1      -7.661   9.221  64.406  1.00  0.00    -0.111 Cl 
HETATM   23  C   UNL     1      -6.021  10.810  65.852  1.00  0.00    -0.135 A  
HETATM   24  C   UNL     1      -8.298  11.475  65.751  1.00  0.00     0.187 A  
HETATM   25  N   UNL     1      -8.082  12.562  66.531  1.00  0.00     0.160 NA 
HETATM   26  C   UNL     1      -5.786  11.894  66.701  1.00  0.00     0.025 A  
HETATM   27  C   UNL     1      -7.308  10.580  65.389  1.00  0.00    -0.084 A  
ENDBRANCH  12  21
ENDBRANCH  10  11
ENDBRANCH   7  10
TORSDOF 3
ENDMDL
MODEL      209
REMARK 921   NORMALIZED FREE ENERGY PREDICTED BY IDOCK:   12.45 KCAL/MOL
REMARK 922        TOTAL FREE ENERGY PREDICTED BY IDOCK:   13.83 KCAL/MOL
REMARK 923 INTER-LIGAND FREE ENERGY PREDICTED BY IDOCK:    2.76 KCAL/MOL
REMARK 924 INTRA-LIGAND FREE ENERGY PREDICTED BY IDOCK:   11.07 KCAL/MOL
REMARK 927      BINDING AFFINITY PREDICTED BY RF-SCORE:    0.00 PKD
ROOT
HETATM    1  C   UNL     1     -13.141  17.191  73.429  1.00  0.00     1.927 C  
HETATM    2  N   UNL     1     -13.349  16.929  72.006  1.00  0.00     2.919 NA 
HETATM    3  C   UNL     1     -12.120  17.178  71.219  1.00  0.00     2.778 C  
HETATM    4  C   UNL     1     -11.023  16.111  71.393  1.00  0.00     0.291 C  
HETATM    5  N   UNL     1     -11.555  14.772  71.161  1.00  0.00    -0.302 N  
HETATM    6  C   UNL     1     -12.753  14.447  71.940  1.00  0.00    -0.349 C  
HETATM    7  C   UNL     1     -11.131  14.049  70.064  1.00  0.00     0.080 C  
HETATM    8  O   UNL     1     -10.344  14.479  69.232  1.00  0.00    -0.219 OA 
HETATM    9  C   UNL     1     -13.826  15.545  71.765  1.00  0.00    -0.474 C  
ENDROOT
BRANCH   7  10
HETATM   10  O   UNL     1     -11.660  12.803  70.032  1.00  0.00    -0.236 OA 
BRANCH  10  11
HETATM   11  C   UNL     1     -11.499  12.098  68.802  1.00  0.00    -0.307 C  
HETATM   12  N   UNL     1     -10.315  12.607  68.129  1.00  0.00    -0.227 N  
HETATM   13  C   UNL     1      -9.293  11.668  68.060  1.00  0.00    -0.178 C  
HETATM   14  C   UNL     1     -11.085  10.690  69.160  1.00  0.00    -0.255 A  
HETATM   15  N   UNL     1     -11.809   9.764  69.831  1.00  0.00    -0.030 NA 
HETATM   16  C   UNL     1      -9.792  10.463  68.736  1.00  0.00    -0.185 A  
HETATM   17  O   UNL     1      -8.214  11.755  67.504  1.00  0.00    -0.137 OA 
HETATM   18  C   UNL     1     -11.143   8.598  70.037  1.00  0.00    -0.157 A  
HETATM   19  N   UNL     1      -9.117   9.312  68.920  1.00  0.00    -0.138 NA 
HETATM   20  C   UNL     1      -9.836   8.379  69.591  1.00  0.00    -0.184 A  
BRANCH  12  21
HETATM   21  C   UNL     1     -10.364  13.797  67.398  1.00  0.00    -0.252 A  
HETATM   22 CL   UNL     1     -10.789  17.702  65.270  1.00  0.00    -0.067 Cl 
HETATM   23  C   UNL     1     -10.607  15.006  65.331  1.00  0.00    -0.398 A  
HETATM   24  C   UNL     1     -10.437  16.112  67.425  1.00  0.00    -0.310 A  
HETATM   25  N   UNL     1     -10.289  14.947  68.102  1.00  0.00    -0.234 NA 
HETATM   26  C   UNL     1     -10.509  13.791  66.013  1.00  0.00    -0.297 A  
HETATM   27  C   UNL     1     -10.598  16.190  66.054  1.00  0.00    -0.295 A  
ENDBRANCH  12  21
ENDBRANCH  10  11
ENDBRANCH   7  10
TORSDOF 3
ENDMDL
MODEL      210
REMARK 921   NORMALIZED FREE ENERGY PREDICTED BY IDOCK:   14.67 KCAL/MOL
REMARK 922        TOTAL FREE ENERGY PREDICTED BY IDOCK:   16.44 KCAL/MOL
REMARK 923 INTER-LIGAND FREE ENERGY PREDICTED BY IDOCK:   10.34 KCAL/MOL
REMARK 924 INTRA-LIGAND FREE ENERGY PREDICTED BY IDOCK:    6.10 KCAL/MOL
REMARK 927      BINDING AFFINITY PREDICTED BY RF-SCORE:    0.00 PKD
ROOT
HETATM    1  C   UNL     1      -5.494  15.166  66.275  1.00  0.00     3.981 C  
HETATM    2  N   UNL     1      -6.423  14.116  66.690  1.00  0.00     1.439 NA 
HETATM    3  C   UNL     1      -5.990  13.471  67.951  1.00  0.00    -0.143 C  
HETATM    4  C   UNL     1      -6.193  14.333  69.211  1.00  0.00    -0.108 C  
HETATM    5  N   UNL     1      -7.564  14.824  69.294  1.00  0.00    -0.156 N  
HETATM    6  C   UNL     1      -8.042  15.508  68.090  1.00  0.00    -0.132 C  
HETATM    7  C   UNL     1      -8.392  14.370  70.302  1.00  0.00     1.566 C  
HETATM    8  O   UNL     1      -8.056  13.537  71.131  1.00  0.00     4.830 OA 
HETATM    9  C   UNL     1      -7.805  14.631  66.840  1.00  0.00     0.125 C  
ENDROOT
BRANCH   7  10
HETATM   10  O   UNL     1      -9.604  14.975  70.284  1.00  0.00     0.153 OA 
BRANCH  10  11
HETATM   11  C   UNL     1     -10.595  14.343  69.476  1.00  0.00    -0.060 C  
HETATM   12  N   UNL     1     -10.413  12.903  69.563  1.00  0.00     0.391 N  
HETATM   13  C   UNL     1     -11.461  12.269  70.219  1.00  0.00     0.185 C  
HETATM   14  C   UNL     1     -11.918  14.542  70.178  1.00  0.00    -0.315 A  
HETATM   15  N   UNL     1     -12.560  15.711  70.409  1.00  0.00    -0.402 NA 
HETATM   16  C   UNL     1     -12.399  13.326  70.619  1.00  0.00    -0.339 A  
HETATM   17  O   UNL     1     -11.644  11.078  70.390  1.00  0.00    -0.308 OA 
HETATM   18  C   UNL     1     -13.718  15.568  71.105  1.00  0.00    -0.327 A  
HETATM   19  N   UNL     1     -13.549  13.160  71.301  1.00  0.00     0.069 NA 
HETATM   20  C   UNL     1     -14.198  14.327  71.535  1.00  0.00    -0.307 A  
BRANCH  12  21
HETATM   21  C   UNL     1      -9.434  12.259  68.801  1.00  0.00     0.086 A  
HETATM   22 CL   UNL     1      -6.070  10.431  66.498  1.00  0.00    -0.066 Cl 
HETATM   23  C   UNL     1      -8.547  11.496  66.698  1.00  0.00    -0.176 A  
HETATM   24  C   UNL     1      -7.331  11.289  68.728  1.00  0.00    -0.109 A  
HETATM   25  N   UNL     1      -8.338  11.824  69.461  1.00  0.00     0.746 NA 
HETATM   26  C   UNL     1      -9.576  12.098  67.426  1.00  0.00    -0.177 A  
HETATM   27  C   UNL     1      -7.390  11.107  67.358  1.00  0.00    -0.108 A  
ENDBRANCH  12  21
ENDBRANCH  10  11
ENDBRANCH   7  10
TORSDOF 3
ENDMDL
MODEL      211
REMARK 921   NORMALIZED FREE ENERGY PREDICTED BY IDOCK:   19.79 KCAL/MOL
REMARK 922        TOTAL FREE ENERGY PREDICTED BY IDOCK:   22.45 KCAL/MOL
REMARK 923 INTER-LIGAND FREE ENERGY PREDICTED BY IDOCK:   13.98 KCAL/MOL
REMARK 924 INTRA-LIGAND FREE ENERGY PREDICTED BY IDOCK:    8.47 KCAL/MOL
REMARK 927      BINDING AFFINITY PREDICTED BY RF-SCORE:    0.00 PKD
ROOT
HETATM    1  C   UNL     1     -11.498  14.295  65.100  1.00  0.00    -0.351 C  
HETATM    2  N   UNL     1     -10.228  14.501  65.795  1.00  0.00    -0.317 NA 
HETATM    3  C   UNL     1     -10.430  15.097  67.136  1.00  0.00    -0.280 C  
HETATM    4  C   UNL     1     -11.001  14.126  68.186  1.00  0.00    -0.249 C  
HETATM    5  N   UNL     1     -10.212  12.900  68.249  1.00  0.00    -0.241 N  
HETATM    6  C   UNL     1     -10.007  12.238  66.958  1.00  0.00    -0.211 C  
HETATM    7  C   UNL     1      -9.476  12.618  69.383  1.00  0.00     1.170 C  
HETATM    8  O   UNL     1      -9.413  13.362  70.352  1.00  0.00     3.396 OA 
HETATM    9  C   UNL     1      -9.457  13.241  65.918  1.00  0.00    -0.026 C  
ENDROOT
BRANCH   7  10
HETATM   10  O   UNL     1      -8.862  11.414  69.313  1.00  0.00     0.114 OA 
BRANCH  10  11
HETATM   11  C   UNL     1      -9.728  10.289  69.171  1.00  0.00    -0.217 C  
HETATM   12  N   UNL     1     -11.091  10.771  69.019  1.00  0.00    -0.233 N  
HETATM   13  C   UNL     1     -11.610  10.521  67.755  1.00  0.00     0.131 C  
HETATM   14  C   UNL     1      -9.445   9.691  67.813  1.00  0.00    -0.127 A  
HETATM   15  N   UNL     1      -8.295   9.117  67.389  1.00  0.00    -0.115 NA 
HETATM   16  C   UNL     1     -10.545   9.851  66.996  1.00  0.00    -0.203 A  
HETATM   17  O   UNL     1     -12.734  10.731  67.336  1.00  0.00     2.696 OA 
HETATM   18  C   UNL     1      -8.336   8.710  66.094  1.00  0.00    -0.125 A  
HETATM   19  N   UNL     1     -10.611   9.446  65.713  1.00  0.00     0.416 NA 
HETATM   20  C   UNL     1      -9.463   8.868  65.281  1.00  0.00     0.071 A  
BRANCH  12  21
HETATM   21  C   UNL     1     -11.840  11.162  70.133  1.00  0.00    -0.365 A  
HETATM   22 CL   UNL     1     -14.325  12.069  73.733  1.00  0.00     6.539 Cl 
HETATM   23  C   UNL     1     -13.581  12.465  71.165  1.00  0.00     0.732 A  
HETATM   24  C   UNL     1     -12.366  10.812  72.361  1.00  0.00     1.306 A  
HETATM   25  N   UNL     1     -11.583  10.522  71.294  1.00  0.00    -0.175 NA 
HETATM   26  C   UNL     1     -12.821  12.146  70.037  1.00  0.00     0.451 A  
HETATM   27  C   UNL     1     -13.368  11.766  72.344  1.00  0.00     0.193 A  
ENDBRANCH  12  21
ENDBRANCH  10  11
ENDBRANCH   7  10
TORSDOF 3
ENDMDL
MODEL      212
REMARK 921   NORMALIZED FREE ENERGY PREDICTED BY IDOCK:   20.75 KCAL/MOL
REMARK 922        TOTAL FREE ENERGY PREDICTED BY IDOCK:   23.59 KCAL/MOL
REMARK 923 INTER-LIGAND FREE ENERGY PREDICTED BY IDOCK:   17.55 KCAL/MOL
REMARK 924 INTRA-LIGAND FREE ENERGY PREDICTED BY IDOCK:    6.03 KCAL/MOL
REMARK 927      BINDING AFFINITY PREDICTED BY RF-SCORE:    0.00 PKD
ROOT
HETATM    1  C   UNL     1     -11.740  13.133  63.490  1.00  0.00    -0.415 C  
HETATM    2  N   UNL     1     -12.108  11.927  64.230  1.00  0.00    -0.289 NA 
HETATM    3  C   UNL     1     -10.966  11.391  65.004  1.00  0.00    -0.204 C  
HETATM    4  C   UNL     1     -10.603  12.210  66.257  1.00  0.00    -0.250 C  
HETATM    5  N   UNL     1     -11.776  12.427  67.097  1.00  0.00    -0.361 N  
HETATM    6  C   UNL     1     -12.933  12.993  66.399  1.00  0.00     1.246 C  
HETATM    7  C   UNL     1     -11.845  11.832  68.342  1.00  0.00    -0.282 C  
HETATM    8  O   UNL     1     -10.981  11.088  68.785  1.00  0.00    -0.188 OA 
HETATM    9  C   UNL     1     -13.258  12.166  65.134  1.00  0.00     1.768 C  
ENDROOT
BRANCH   7  10
HETATM   10  O   UNL     1     -12.959  12.190  69.024  1.00  0.00     0.903 OA 
BRANCH  10  11
HETATM   11  C   UNL     1     -12.826  12.223  70.444  1.00  0.00     0.251 C  
HETATM   12  N   UNL     1     -11.436  11.968  70.784  1.00  0.00     0.629 N  
HETATM   13  C   UNL     1     -10.809  13.075  71.341  1.00  0.00     5.159 C  
HETATM   14  C   UNL     1     -13.001  13.664  70.863  1.00  0.00    -0.186 A  
HETATM   15  N   UNL     1     -14.112  14.428  70.745  1.00  0.00     0.234 NA 
HETATM   16  C   UNL     1     -11.811  14.149  71.366  1.00  0.00     0.008 A  
HETATM   17  O   UNL     1      -9.683  13.167  71.795  1.00  0.00    10.522 OA 
HETATM   18  C   UNL     1     -13.942  15.705  71.175  1.00  0.00     0.031 A  
HETATM   19  N   UNL     1     -11.624  15.408  71.808  1.00  0.00    -0.396 NA 
HETATM   20  C   UNL     1     -12.733  16.179  71.695  1.00  0.00    -0.029 A  
BRANCH  12  21
HETATM   21  C   UNL     1     -10.932  10.664  70.804  1.00  0.00     0.315 A  
HETATM   22 CL   UNL     1      -9.281   6.523  70.515  1.00  0.00    -0.155 Cl 
HETATM   23  C   UNL     1     -11.139   8.320  71.307  1.00  0.00    -0.296 A  
HETATM   24  C   UNL     1      -9.258   9.200  70.156  1.00  0.00    -0.206 A  
HETATM   25  N   UNL     1      -9.720  10.472  70.240  1.00  0.00     0.406 NA 
HETATM   26  C   UNL     1     -11.660   9.615  71.358  1.00  0.00    -0.472 A  
HETATM   27  C   UNL     1      -9.926   8.104  70.669  1.00  0.00    -0.189 A  
ENDBRANCH  12  21
ENDBRANCH  10  11
ENDBRANCH   7  10
TORSDOF 3
ENDMDL
MODEL      213
REMARK 921   NORMALIZED FREE ENERGY PREDICTED BY IDOCK:   21.82 KCAL/MOL
REMARK 922        TOTAL FREE ENERGY PREDICTED BY IDOCK:   24.84 KCAL/MOL
REMARK 923 INTER-LIGAND FREE ENERGY PREDICTED BY IDOCK:   19.93 KCAL/MOL
REMARK 924 INTRA-LIGAND FREE ENERGY PREDICTED BY IDOCK:    4.92 KCAL/MOL
REMARK 927      BINDING AFFINITY PREDICTED BY RF-SCORE:    0.00 PKD
ROOT
HETATM    1  C   UNL     1     -12.414   5.709  63.408  1.00  0.00     7.764 C  
HETATM    2  N   UNL     1     -11.411   4.864  64.055  1.00  0.00     1.414 NA 
HETATM    3  C   UNL     1     -10.120   4.897  63.332  1.00  0.00     0.745 C  
HETATM    4  C   UNL     1      -9.324   6.204  63.505  1.00  0.00     1.626 C  
HETATM    5  N   UNL     1      -9.166   6.536  64.917  1.00  0.00     0.645 N  
HETATM    6  C   UNL     1     -10.413   6.559  65.684  1.00  0.00     1.708 C  
HETATM    7  C   UNL     1      -7.910   6.496  65.492  1.00  0.00    -0.104 C  
HETATM    8  O   UNL     1      -6.900   6.160  64.890  1.00  0.00    -0.045 OA 
HETATM    9  C   UNL     1     -11.201   5.246  65.472  1.00  0.00     0.809 C  
ENDROOT
BRANCH   7  10
HETATM   10  O   UNL     1      -7.922   6.901  66.784  1.00  0.00    -0.105 OA 
BRANCH  10  11
HETATM   11  C   UNL     1      -7.844   5.859  67.755  1.00  0.00    -0.098 C  
HETATM   12  N   UNL     1      -9.134   5.192  67.823  1.00  0.00    -0.110 N  
HETATM   13  C   UNL     1      -9.088   3.886  67.354  1.00  0.00    -0.156 C  
HETATM   14  C   UNL     1      -6.958   4.785  67.169  1.00  0.00    -0.061 A  
HETATM   15  N   UNL     1      -5.642   4.877  66.864  1.00  0.00    -0.013 NA 
HETATM   16  C   UNL     1      -7.703   3.649  66.925  1.00  0.00    -0.080 A  
HETATM   17  O   UNL     1      -9.969   3.046  67.344  1.00  0.00     0.238 OA 
HETATM   18  C   UNL     1      -5.132   3.749  66.307  1.00  0.00    -0.008 A  
HETATM   19  N   UNL     1      -7.215   2.516  66.384  1.00  0.00    -0.063 NA 
HETATM   20  C   UNL     1      -5.897   2.601  66.077  1.00  0.00    -0.022 A  
BRANCH  12  21
HETATM   21  C   UNL     1     -10.188   5.746  68.556  1.00  0.00    -0.192 A  
HETATM   22 CL   UNL     1     -13.394   7.397  71.193  1.00  0.00    -0.322 Cl 
HETATM   23  C   UNL     1     -12.528   5.947  69.083  1.00  0.00     4.886 A  
HETATM   24  C   UNL     1     -10.853   7.070  70.337  1.00  0.00    -0.254 A  
HETATM   25  N   UNL     1      -9.856   6.601  69.547  1.00  0.00    -0.152 NA 
HETATM   26  C   UNL     1     -11.512   5.409  68.288  1.00  0.00     1.823 A  
HETATM   27  C   UNL     1     -12.190   6.773  70.145  1.00  0.00     0.052 A  
ENDBRANCH  12  21
ENDBRANCH  10  11
ENDBRANCH   7  10
TORSDOF 3
ENDMDL
MODEL      214
REMARK 921   NORMALIZED FREE ENERGY PREDICTED BY IDOCK:   22.91 KCAL/MOL
REMARK 922        TOTAL FREE ENERGY PREDICTED BY IDOCK:   26.12 KCAL/MOL
REMARK 923 INTER-LIGAND FREE ENERGY PREDICTED BY IDOCK:   15.80 KCAL/MOL
REMARK 924 INTRA-LIGAND FREE ENERGY PREDICTED BY IDOCK:   10.32 KCAL/MOL
REMARK 927      BINDING AFFINITY PREDICTED BY RF-SCORE:    0.00 PKD
ROOT
HETATM    1  C   UNL     1     -13.511  11.480  67.990  1.00  0.00     7.555 C  
HETATM    2  N   UNL     1     -12.248  12.045  68.463  1.00  0.00    -0.278 NA 
HETATM    3  C   UNL     1     -11.353  12.399  67.337  1.00  0.00    -0.321 C  
HETATM    4  C   UNL     1     -11.778  13.656  66.555  1.00  0.00    -0.382 C  
HETATM    5  N   UNL     1     -11.992  14.784  67.455  1.00  0.00    -0.300 N  
HETATM    6  C   UNL     1     -12.900  14.511  68.572  1.00  0.00     1.196 C  
HETATM    7  C   UNL     1     -11.141  15.871  67.402  1.00  0.00    -0.207 C  
HETATM    8  O   UNL     1     -10.175  15.939  66.656  1.00  0.00    -0.271 OA 
HETATM    9  C   UNL     1     -12.464  13.233  69.323  1.00  0.00     0.177 C  
ENDROOT
BRANCH   7  10
HETATM   10  O   UNL     1     -11.518  16.861  68.246  1.00  0.00    -0.123 OA 
BRANCH  10  11
HETATM   11  C   UNL     1     -10.653  17.082  69.359  1.00  0.00    -0.236 C  
HETATM   12  N   UNL     1      -9.918  15.856  69.624  1.00  0.00    -0.271 N  
HETATM   13  C   UNL     1      -8.559  15.978  69.361  1.00  0.00    -0.150 C  
HETATM   14  C   UNL     1      -9.563  18.014  68.883  1.00  0.00    -0.231 A  
HETATM   15  N   UNL     1      -9.697  19.296  68.472  1.00  0.00    -0.388 NA 
HETATM   16  C   UNL     1      -8.353  17.349  68.874  1.00  0.00    -0.160 A  
HETATM   17  O   UNL     1      -7.670  15.168  69.547  1.00  0.00    -0.204 OA 
HETATM   18  C   UNL     1      -8.531  19.860  68.061  1.00  0.00    -0.257 A  
HETATM   19  N   UNL     1      -7.185  17.891  68.481  1.00  0.00    -0.252 NA 
HETATM   20  C   UNL     1      -7.311  19.177  68.069  1.00  0.00    -0.256 A  
BRANCH  12  21
HETATM   21  C   UNL     1     -10.507  14.808  70.338  1.00  0.00     0.245 A  
HETATM   22 CL   UNL     1     -12.361  11.263  72.325  1.00  0.00     0.789 Cl 
HETATM   23  C   UNL     1     -12.317  13.871  71.618  1.00  0.00    -0.270 A  
HETATM   24  C   UNL     1     -10.433  12.580  70.968  1.00  0.00     5.811 A  
HETATM   25  N   UNL     1      -9.833  13.639  70.369  1.00  0.00     2.776 NA 
HETATM   26  C   UNL     1     -11.742  14.962  70.962  1.00  0.00    -0.376 A  
HETATM   27  C   UNL     1     -11.662  12.649  71.598  1.00  0.00     2.179 A  
ENDBRANCH  12  21
ENDBRANCH  10  11
ENDBRANCH   7  10
TORSDOF 3
ENDMDL
MODEL      215
REMARK 921   NORMALIZED FREE ENERGY PREDICTED BY IDOCK:   31.95 KCAL/MOL
REMARK 922        TOTAL FREE ENERGY PREDICTED BY IDOCK:   36.74 KCAL/MOL
REMARK 923 INTER-LIGAND FREE ENERGY PREDICTED BY IDOCK:   30.95 KCAL/MOL
REMARK 924 INTRA-LIGAND FREE ENERGY PREDICTED BY IDOCK:    5.79 KCAL/MOL
REMARK 927      BINDING AFFINITY PREDICTED BY RF-SCORE:    0.00 PKD
ROOT
HETATM    1  C   UNL     1     -14.010  20.259  66.503  1.00  0.00     8.205 C  
HETATM    2  N   UNL     1     -13.643  19.208  67.452  1.00  0.00     6.817 NA 
HETATM    3  C   UNL     1     -13.129  18.004  66.760  1.00  0.00     9.528 C  
HETATM    4  C   UNL     1     -11.712  18.158  66.178  1.00  0.00     2.698 C  
HETATM    5  N   UNL     1     -10.780  18.643  67.191  1.00  0.00    -0.413 N  
HETATM    6  C   UNL     1     -11.212  19.857  67.887  1.00  0.00     0.582 C  
HETATM    7  C   UNL     1      -9.768  17.818  67.639  1.00  0.00    -0.282 C  
HETATM    8  O   UNL     1      -9.616  16.665  67.260  1.00  0.00    -0.237 OA 
HETATM    9  C   UNL     1     -12.645  19.683  68.440  1.00  0.00     6.534 C  
ENDROOT
BRANCH   7  10
HETATM   10  O   UNL     1      -8.948  18.439  68.520  1.00  0.00    -0.312 OA 
BRANCH  10  11
HETATM   11  C   UNL     1      -7.586  18.016  68.496  1.00  0.00    -0.291 C  
HETATM   12  N   UNL     1      -7.396  17.135  67.356  1.00  0.00    -0.149 N  
HETATM   13  C   UNL     1      -6.573  17.688  66.383  1.00  0.00    -0.243 C  
HETATM   14  C   UNL     1      -6.764  19.224  68.110  1.00  0.00    -0.247 A  
HETATM   15  N   UNL     1      -6.607  20.372  68.810  1.00  0.00    -0.271 NA 
HETATM   16  C   UNL     1      -6.196  19.022  66.869  1.00  0.00    -0.178 A  
HETATM   17  O   UNL     1      -6.163  17.184  65.353  1.00  0.00     0.410 OA 
HETATM   18  C   UNL     1      -5.837  21.293  68.177  1.00  0.00    -0.289 A  
HETATM   19  N   UNL     1      -5.420  19.917  66.228  1.00  0.00    -0.170 NA 
HETATM   20  C   UNL     1      -5.258  21.070  66.923  1.00  0.00    -0.207 A  
BRANCH  12  21
HETATM   21  C   UNL     1      -7.774  15.790  67.420  1.00  0.00    -0.183 A  
HETATM   22 CL   UNL     1      -9.303  11.594  67.513  1.00  0.00    -0.166 Cl 
HETATM   23  C   UNL     1      -8.069  13.727  68.623  1.00  0.00    -0.084 A  
HETATM   24  C   UNL     1      -8.775  13.984  66.371  1.00  0.00     0.210 A  
HETATM   25  N   UNL     1      -8.307  15.255  66.301  1.00  0.00     0.019 NA 
HETATM   26  C   UNL     1      -7.627  15.052  68.591  1.00  0.00    -0.128 A  
HETATM   27  C   UNL     1      -8.679  13.191  67.499  1.00  0.00    -0.201 A  
ENDBRANCH  12  21
ENDBRANCH  10  11
ENDBRANCH   7  10
TORSDOF 3
ENDMDL
MODEL      216
REMARK 921   NORMALIZED FREE ENERGY PREDICTED BY IDOCK:   31.96 KCAL/MOL
REMARK 922        TOTAL FREE ENERGY PREDICTED BY IDOCK:   36.75 KCAL/MOL
REMARK 923 INTER-LIGAND FREE ENERGY PREDICTED BY IDOCK:   10.00 KCAL/MOL
REMARK 924 INTRA-LIGAND FREE ENERGY PREDICTED BY IDOCK:   26.75 KCAL/MOL
REMARK 927      BINDING AFFINITY PREDICTED BY RF-SCORE:    0.00 PKD
ROOT
HETATM    1  C   UNL     1      -8.028   4.125  65.073  1.00  0.00    -0.093 C  
HETATM    2  N   UNL     1      -8.327   5.085  66.134  1.00  0.00    -0.112 NA 
HETATM    3  C   UNL     1      -7.152   5.924  66.458  1.00  0.00    -0.069 C  
HETATM    4  C   UNL     1      -6.819   6.994  65.401  1.00  0.00    -0.052 C  
HETATM    5  N   UNL     1      -7.993   7.801  65.086  1.00  0.00    -0.123 N  
HETATM    6  C   UNL     1      -9.184   7.030  64.719  1.00  0.00     1.193 C  
HETATM    7  C   UNL     1      -8.020   9.135  65.439  1.00  0.00    -0.106 C  
HETATM    8  O   UNL     1      -7.115   9.694  66.043  1.00  0.00    -0.092 OA 
HETATM    9  C   UNL     1      -9.479   5.950  65.784  1.00  0.00     0.065 C  
ENDROOT
BRANCH   7  10
HETATM   10  O   UNL     1      -9.144   9.759  65.012  1.00  0.00    -0.198 OA 
BRANCH  10  11
HETATM   11  C   UNL     1     -10.158   9.939  65.999  1.00  0.00    -0.244 C  
HETATM   12  N   UNL     1      -9.950   8.968  67.060  1.00  0.00    -0.209 N  
HETATM   13  C   UNL     1      -9.575   9.558  68.261  1.00  0.00    -0.138 C  
HETATM   14  C   UNL     1      -9.858  11.246  66.696  1.00  0.00    -0.205 A  
HETATM   15  N   UNL     1      -9.873  12.489  66.160  1.00  0.00    -0.255 NA 
HETATM   16  C   UNL     1      -9.503  11.003  68.007  1.00  0.00    -0.166 A  
HETATM   17  O   UNL     1      -9.398   9.035  69.346  1.00  0.00    -0.153 OA 
HETATM   18  C   UNL     1      -9.515  13.463  67.035  1.00  0.00    -0.247 A  
HETATM   19  N   UNL     1      -9.155  11.955  68.895  1.00  0.00     0.066 NA 
HETATM   20  C   UNL     1      -9.169  13.202  68.365  1.00  0.00    -0.141 A  
BRANCH  12  21
HETATM   21  C   UNL     1     -10.379   7.645  66.914  1.00  0.00    -0.318 A  
HETATM   22 CL   UNL     1     -11.441   3.352  66.287  1.00  0.00     5.200 Cl 
HETATM   23  C   UNL     1     -11.941   6.002  66.106  1.00  0.00     2.818 A  
HETATM   24  C   UNL     1      -9.910   5.392  67.175  1.00  0.00    -0.158 A  
HETATM   25  N   UNL     1      -9.564   6.684  67.397  1.00  0.00    -0.123 NA 
HETATM   26  C   UNL     1     -11.579   7.340  66.277  1.00  0.00     3.347 A  
HETATM   27  C   UNL     1     -11.076   5.007  66.540  1.00  0.00     0.517 A  
ENDBRANCH  12  21
ENDBRANCH  10  11
ENDBRANCH   7  10
TORSDOF 3
ENDMDL
MODEL      217
REMARK 921   NORMALIZED FREE ENERGY PREDICTED BY IDOCK:   32.16 KCAL/MOL
REMARK 922        TOTAL FREE ENERGY PREDICTED BY IDOCK:   36.99 KCAL/MOL
REMARK 923 INTER-LIGAND FREE ENERGY PREDICTED BY IDOCK:   10.63 KCAL/MOL
REMARK 924 INTRA-LIGAND FREE ENERGY PREDICTED BY IDOCK:   26.36 KCAL/MOL
REMARK 927      BINDING AFFINITY PREDICTED BY RF-SCORE:    0.00 PKD
ROOT
HETATM    1  C   UNL     1      -5.526  15.088  66.279  1.00  0.00     4.224 C  
HETATM    2  N   UNL     1      -6.412  14.044  66.793  1.00  0.00     0.933 NA 
HETATM    3  C   UNL     1      -5.962  13.548  68.114  1.00  0.00    -0.115 C  
HETATM    4  C   UNL     1      -6.213  14.522  69.281  1.00  0.00    -0.112 C  
HETATM    5  N   UNL     1      -7.605  14.957  69.308  1.00  0.00    -0.168 N  
HETATM    6  C   UNL     1      -8.102  15.496  68.040  1.00  0.00    -0.136 C  
HETATM    7  C   UNL     1      -8.422  14.570  70.352  1.00  0.00     1.743 C  
HETATM    8  O   UNL     1      -8.057  13.840  71.263  1.00  0.00     4.414 OA 
HETATM    9  C   UNL     1      -7.816  14.510  66.885  1.00  0.00     0.170 C  
ENDROOT
BRANCH   7  10
HETATM   10  O   UNL     1      -9.659  15.116  70.269  1.00  0.00     0.063 OA 
BRANCH  10  11
HETATM   11  C   UNL     1     -10.486  14.607  69.224  1.00  0.00    -0.209 C  
HETATM   12  N   UNL     1      -9.805  14.808  67.955  1.00  0.00    -0.215 N  
HETATM   13  C   UNL     1      -9.418  13.615  67.360  1.00  0.00    -0.225 C  
HETATM   14  C   UNL     1     -10.477  13.102  69.358  1.00  0.00     0.356 A  
HETATM   15  N   UNL     1     -10.965  12.363  70.382  1.00  0.00     1.140 NA 
HETATM   16  C   UNL     1      -9.836  12.542  68.272  1.00  0.00    -0.227 A  
HETATM   17  O   UNL     1      -8.899  13.437  66.273  1.00  0.00     0.026 OA 
HETATM   18  C   UNL     1     -10.769  11.028  70.231  1.00  0.00     0.406 A  
HETATM   19  N   UNL     1      -9.640  11.221  68.097  1.00  0.00    -0.180 NA 
HETATM   20  C   UNL     1     -10.127  10.474  69.119  1.00  0.00    -0.224 A  
BRANCH  12  21
HETATM   21  C   UNL     1      -9.831  16.053  67.319  1.00  0.00    -0.236 A  
HETATM   22 CL   UNL     1      -9.839  20.176  65.601  1.00  0.00    -0.321 Cl 
HETATM   23  C   UNL     1     -10.944  17.746  66.021  1.00  0.00     0.248 A  
HETATM   24  C   UNL     1      -8.782  18.084  66.943  1.00  0.00    -0.251 A  
HETATM   25  N   UNL     1      -8.739  16.833  67.464  1.00  0.00    -0.197 NA 
HETATM   26  C   UNL     1     -10.943  16.472  66.594  1.00  0.00     0.060 A  
HETATM   27  C   UNL     1      -9.853  18.578  66.221  1.00  0.00    -0.337 A  
ENDBRANCH  12  21
ENDBRANCH  10  11
ENDBRANCH   7  10
TORSDOF 3
ENDMDL
MODEL      218
REMARK 921   NORMALIZED FREE ENERGY PREDICTED BY IDOCK:   35.86 KCAL/MOL
REMARK 922        TOTAL FREE ENERGY PREDICTED BY IDOCK:   41.34 KCAL/MOL
REMARK 923 INTER-LIGAND FREE ENERGY PREDICTED BY IDOCK:   41.90 KCAL/MOL
REMARK 924 INTRA-LIGAND FREE ENERGY PREDICTED BY IDOCK:   -0.56 KCAL/MOL
REMARK 927      BINDING AFFINITY PREDICTED BY RF-SCORE:    0.00 PKD
ROOT
HETATM    1  C   UNL     1     -10.605  13.586  62.388  1.00  0.00     7.416 C  
HETATM    2  N   UNL     1     -10.979  14.869  62.983  1.00  0.00     3.542 NA 
HETATM    3  C   UNL     1     -12.202  14.751  63.809  1.00  0.00     0.204 C  
HETATM    4  C   UNL     1     -11.997  14.034  65.156  1.00  0.00    -0.387 C  
HETATM    5  N   UNL     1     -10.892  14.627  65.902  1.00  0.00    -0.303 N  
HETATM    6  C   UNL     1      -9.638  14.738  65.153  1.00  0.00     0.217 C  
HETATM    7  C   UNL     1     -11.148  15.305  67.078  1.00  0.00    -0.305 C  
HETATM    8  O   UNL     1     -12.271  15.474  67.532  1.00  0.00     0.301 OA 
HETATM    9  C   UNL     1      -9.879  15.440  63.797  1.00  0.00     6.120 C  
ENDROOT
BRANCH   7  10
HETATM   10  O   UNL     1     -10.014  15.730  67.684  1.00  0.00    -0.235 OA 
BRANCH  10  11
HETATM   11  C   UNL     1      -9.954  15.516  69.094  1.00  0.00    -0.246 C  
HETATM   12  N   UNL     1      -8.561  15.359  69.478  1.00  0.00    -0.255 N  
HETATM   13  C   UNL     1      -8.100  16.408  70.264  1.00  0.00     1.976 C  
HETATM   14  C   UNL     1     -10.322  16.827  69.748  1.00  0.00    -0.064 A  
HETATM   15  N   UNL     1     -11.511  17.471  69.692  1.00  0.00     1.544 NA 
HETATM   16  C   UNL     1      -9.226  17.340  70.410  1.00  0.00     3.045 A  
HETATM   17  O   UNL     1      -7.016  16.539  70.803  1.00  0.00     1.584 OA 
HETATM   18  C   UNL     1     -11.519  18.657  70.352  1.00  0.00     5.523 A  
HETATM   19  N   UNL     1      -9.214  18.509  71.080  1.00  0.00     5.308 NA 
HETATM   20  C   UNL     1     -10.403  19.159  71.029  1.00  0.00     2.432 A  
BRANCH  12  21
HETATM   21  C   UNL     1      -7.903  14.138  69.301  1.00  0.00     0.142 A  
HETATM   22 CL   UNL     1      -5.625  10.304  69.036  1.00  0.00    -0.038 Cl 
HETATM   23  C   UNL     1      -6.526  12.640  68.017  1.00  0.00    -0.093 A  
HETATM   24  C   UNL     1      -7.236  12.120  70.223  1.00  0.00     1.766 A  
HETATM   25  N   UNL     1      -7.951  13.266  70.331  1.00  0.00     2.923 NA 
HETATM   26  C   UNL     1      -7.213  13.851  68.127  1.00  0.00    -0.120 A  
HETATM   27  C   UNL     1      -6.515  11.768  69.096  1.00  0.00    -0.097 A  
ENDBRANCH  12  21
ENDBRANCH  10  11
ENDBRANCH   7  10
TORSDOF 3
ENDMDL
MODEL      219
REMARK 921   NORMALIZED FREE ENERGY PREDICTED BY IDOCK:   38.43 KCAL/MOL
REMARK 922        TOTAL FREE ENERGY PREDICTED BY IDOCK:   44.36 KCAL/MOL
REMARK 923 INTER-LIGAND FREE ENERGY PREDICTED BY IDOCK:   41.58 KCAL/MOL
REMARK 924 INTRA-LIGAND FREE ENERGY PREDICTED BY IDOCK:    2.78 KCAL/MOL
REMARK 927      BINDING AFFINITY PREDICTED BY RF-SCORE:    0.00 PKD
ROOT
HETATM    1  C   UNL     1      -5.386  15.061  66.036  1.00  0.00     5.737 C  
HETATM    2  N   UNL     1      -6.192  13.844  66.126  1.00  0.00     4.214 NA 
HETATM    3  C   UNL     1      -6.029  13.177  67.437  1.00  0.00     0.000 C  
HETATM    4  C   UNL     1      -6.733  13.889  68.608  1.00  0.00    -0.098 C  
HETATM    5  N   UNL     1      -8.135  14.144  68.297  1.00  0.00    -0.138 N  
HETATM    6  C   UNL     1      -8.364  14.838  67.028  1.00  0.00    -0.198 C  
HETATM    7  C   UNL     1      -9.122  13.482  69.001  1.00  0.00     0.368 C  
HETATM    8  O   UNL     1      -8.894  12.649  69.866  1.00  0.00     2.241 OA 
HETATM    9  C   UNL     1      -7.628  14.115  65.876  1.00  0.00     4.238 C  
ENDROOT
BRANCH   7  10
HETATM   10  O   UNL     1     -10.366  13.883  68.645  1.00  0.00    -0.239 OA 
BRANCH  10  11
HETATM   11  C   UNL     1     -10.902  14.967  69.402  1.00  0.00    -0.264 C  
HETATM   12  N   UNL     1     -10.698  14.690  70.814  1.00  0.00     0.245 N  
HETATM   13  C   UNL     1      -9.794  15.563  71.407  1.00  0.00     2.196 C  
HETATM   14  C   UNL     1      -9.990  16.149  69.171  1.00  0.00    -0.251 A  
HETATM   15  N   UNL     1      -9.768  16.804  68.008  1.00  0.00    -0.238 NA 
HETATM   16  C   UNL     1      -9.340  16.471  70.345  1.00  0.00     2.003 A  
HETATM   17  O   UNL     1      -9.466  15.644  72.576  1.00  0.00     5.286 OA 
HETATM   18  C   UNL     1      -8.855  17.805  68.113  1.00  0.00    -0.267 A  
HETATM   19  N   UNL     1      -8.441  17.466  70.474  1.00  0.00     3.740 NA 
HETATM   20  C   UNL     1      -8.213  18.127  69.313  1.00  0.00     0.245 A  
BRANCH  12  21
HETATM   21  C   UNL     1     -11.558  13.831  71.506  1.00  0.00     1.118 A  
HETATM   22 CL   UNL     1     -14.272  10.859  73.445  1.00  0.00     3.421 Cl 
HETATM   23  C   UNL     1     -13.659  13.343  72.572  1.00  0.00    -0.659 A  
HETATM   24  C   UNL     1     -11.975  11.693  72.293  1.00  0.00     2.878 A  
HETATM   25  N   UNL     1     -11.119  12.571  71.716  1.00  0.00     5.009 NA 
HETATM   26  C   UNL     1     -12.814  14.253  71.933  1.00  0.00    -0.429 A  
HETATM   27  C   UNL     1     -13.242  12.030  72.732  1.00  0.00     1.424 A  
ENDBRANCH  12  21
ENDBRANCH  10  11
ENDBRANCH   7  10
TORSDOF 3
ENDMDL
MODEL      220
REMARK 921   NORMALIZED FREE ENERGY PREDICTED BY IDOCK:   49.30 KCAL/MOL
REMARK 922        TOTAL FREE ENERGY PREDICTED BY IDOCK:   57.14 KCAL/MOL
REMARK 923 INTER-LIGAND FREE ENERGY PREDICTED BY IDOCK:   -0.38 KCAL/MOL
REMARK 924 INTRA-LIGAND FREE ENERGY PREDICTED BY IDOCK:   57.52 KCAL/MOL
REMARK 927      BINDING AFFINITY PREDICTED BY RF-SCORE:    0.00 PKD
ROOT
HETATM    1  C   UNL     1      -7.102  19.557  66.453  1.00  0.00    -0.229 C  
HETATM    2  N   UNL     1      -7.522  18.231  66.003  1.00  0.00    -0.429 NA 
HETATM    3  C   UNL     1      -6.379  17.292  65.929  1.00  0.00     0.142 C  
HETATM    4  C   UNL     1      -5.858  16.811  67.296  1.00  0.00    -0.170 C  
HETATM    5  N   UNL     1      -6.944  16.281  68.113  1.00  0.00    -0.125 N  
HETATM    6  C   UNL     1      -8.093  17.179  68.259  1.00  0.00    -0.239 C  
HETATM    7  C   UNL     1      -6.977  14.935  68.417  1.00  0.00    -0.110 C  
HETATM    8  O   UNL     1      -6.153  14.128  68.009  1.00  0.00    -0.119 OA 
HETATM    9  C   UNL     1      -8.579  17.664  66.874  1.00  0.00    -0.242 C  
ENDROOT
BRANCH   7  10
HETATM   10  O   UNL     1      -8.004  14.617  69.241  1.00  0.00    -0.135 OA 
BRANCH  10  11
HETATM   11  C   UNL     1      -9.237  15.281  68.970  1.00  0.00    -0.223 C  
HETATM   12  N   UNL     1      -8.953  16.499  68.229  1.00  0.00    -0.207 N  
HETATM   13  C   UNL     1      -9.429  16.455  66.924  1.00  0.00    -0.235 C  
HETATM   14  C   UNL     1      -9.965  14.443  67.946  1.00  0.00    -0.228 A  
HETATM   15  N   UNL     1     -10.441  13.185  68.098  1.00  0.00    -0.241 NA 
HETATM   16  C   UNL     1     -10.052  15.136  66.755  1.00  0.00    -0.258 A  
HETATM   17  O   UNL     1      -9.418  17.330  66.078  1.00  0.00    -0.462 OA 
HETATM   18  C   UNL     1     -11.015  12.681  66.975  1.00  0.00    -0.265 A  
HETATM   19  N   UNL     1     -10.626  14.660  65.633  1.00  0.00    -0.312 NA 
HETATM   20  C   UNL     1     -11.106  13.400  65.778  1.00  0.00    -0.282 A  
BRANCH  12  21
HETATM   21  C   UNL     1      -8.518  17.653  68.888  1.00  0.00    -0.127 A  
HETATM   22 CL   UNL     1      -6.993  21.129  71.243  1.00  0.00     2.610 Cl 
HETATM   23  C   UNL     1      -8.935  19.780  69.933  1.00  0.00     0.799 A  
HETATM   24  C   UNL     1      -6.781  18.780  69.926  1.00  0.00     0.101 A  
HETATM   25  N   UNL     1      -7.206  17.718  69.198  1.00  0.00    -0.200 NA 
HETATM   26  C   UNL     1      -9.406  18.671  69.227  1.00  0.00     0.050 A  
HETATM   27  C   UNL     1      -7.602  19.824  70.313  1.00  0.00     0.761 A  
ENDBRANCH  12  21
ENDBRANCH  10  11
ENDBRANCH   7  10
TORSDOF 3
ENDMDL
MODEL      221
REMARK 921   NORMALIZED FREE ENERGY PREDICTED BY IDOCK:   55.83 KCAL/MOL
REMARK 922        TOTAL FREE ENERGY PREDICTED BY IDOCK:   64.81 KCAL/MOL
REMARK 923 INTER-LIGAND FREE ENERGY PREDICTED BY IDOCK:   62.57 KCAL/MOL
REMARK 924 INTRA-LIGAND FREE ENERGY PREDICTED BY IDOCK:    2.24 KCAL/MOL
REMARK 927      BINDING AFFINITY PREDICTED BY RF-SCORE:    0.00 PKD
ROOT
HETATM    1  C   UNL     1      -6.549  12.446  73.136  1.00  0.00     6.053 C  
HETATM    2  N   UNL     1      -7.943  12.485  72.697  1.00  0.00    15.406 NA 
HETATM    3  C   UNL     1      -8.511  13.848  72.805  1.00  0.00    11.162 C  
HETATM    4  C   UNL     1      -8.008  14.836  71.737  1.00  0.00     4.537 C  
HETATM    5  N   UNL     1      -8.169  14.284  70.396  1.00  0.00     1.622 N  
HETATM    6  C   UNL     1      -7.593  12.950  70.210  1.00  0.00     2.684 C  
HETATM    7  C   UNL     1      -9.072  14.860  69.524  1.00  0.00     0.026 C  
HETATM    8  O   UNL     1      -9.789  15.806  69.819  1.00  0.00    -0.273 OA 
HETATM    9  C   UNL     1      -8.097  11.986  71.309  1.00  0.00    10.136 C  
ENDROOT
BRANCH   7  10
HETATM   10  O   UNL     1      -9.049  14.279  68.301  1.00  0.00    -0.177 OA 
BRANCH  10  11
HETATM   11  C   UNL     1      -8.184  14.891  67.346  1.00  0.00    -0.197 C  
HETATM   12  N   UNL     1      -8.835  14.866  66.047  1.00  0.00     0.032 N  
HETATM   13  C   UNL     1      -9.179  16.133  65.595  1.00  0.00     0.013 C  
HETATM   14  C   UNL     1      -8.161  16.368  67.665  1.00  0.00    -0.156 A  
HETATM   15  N   UNL     1      -7.683  16.962  68.783  1.00  0.00    -0.239 NA 
HETATM   16  C   UNL     1      -8.760  17.074  66.642  1.00  0.00    -0.251 A  
HETATM   17  O   UNL     1      -9.665  16.457  64.526  1.00  0.00     1.170 OA 
HETATM   18  C   UNL     1      -7.844  18.310  68.794  1.00  0.00    -0.260 A  
HETATM   19  N   UNL     1      -8.921  18.411  66.628  1.00  0.00    -0.283 NA 
HETATM   20  C   UNL     1      -8.444  19.014  67.745  1.00  0.00    -0.293 A  
BRANCH  12  21
HETATM   21  C   UNL     1      -8.821  13.708  65.262  1.00  0.00     1.946 A  
HETATM   22 CL   UNL     1      -9.064  10.137  62.589  1.00  0.00    -0.270 Cl 
HETATM   23  C   UNL     1      -8.880  11.315  65.015  1.00  0.00     0.059 A  
HETATM   24  C   UNL     1      -8.903  12.777  63.143  1.00  0.00     4.045 A  
HETATM   25  N   UNL     1      -8.813  13.881  63.923  1.00  0.00     5.570 NA 
HETATM   26  C   UNL     1      -8.841  12.442  65.840  1.00  0.00     0.302 A  
HETATM   27  C   UNL     1      -8.940  11.486  63.640  1.00  0.00     0.208 A  
ENDBRANCH  12  21
ENDBRANCH  10  11
ENDBRANCH   7  10
TORSDOF 3
ENDMDL
MODEL      222
REMARK 921   NORMALIZED FREE ENERGY PREDICTED BY IDOCK:   60.70 KCAL/MOL
REMARK 922        TOTAL FREE ENERGY PREDICTED BY IDOCK:   70.54 KCAL/MOL
REMARK 923 INTER-LIGAND FREE ENERGY PREDICTED BY IDOCK:   63.51 KCAL/MOL
REMARK 924 INTRA-LIGAND FREE ENERGY PREDICTED BY IDOCK:    7.03 KCAL/MOL
REMARK 927      BINDING AFFINITY PREDICTED BY RF-SCORE:    0.00 PKD
ROOT
HETATM    1  C   UNL     1      -5.386  15.061  66.036  1.00  0.00     5.737 C  
HETATM    2  N   UNL     1      -6.192  13.844  66.126  1.00  0.00     4.214 NA 
HETATM    3  C   UNL     1      -6.029  13.177  67.437  1.00  0.00     0.000 C  
HETATM    4  C   UNL     1      -6.733  13.889  68.608  1.00  0.00    -0.098 C  
HETATM    5  N   UNL     1      -8.135  14.144  68.297  1.00  0.00    -0.138 N  
HETATM    6  C   UNL     1      -8.364  14.838  67.028  1.00  0.00    -0.198 C  
HETATM    7  C   UNL     1      -9.122  13.482  69.001  1.00  0.00     0.368 C  
HETATM    8  O   UNL     1      -8.894  12.649  69.866  1.00  0.00     2.241 OA 
HETATM    9  C   UNL     1      -7.628  14.115  65.876  1.00  0.00     4.238 C  
ENDROOT
BRANCH   7  10
HETATM   10  O   UNL     1     -10.366  13.883  68.645  1.00  0.00    -0.239 OA 
BRANCH  10  11
HETATM   11  C   UNL     1     -10.902  14.967  69.402  1.00  0.00    -0.264 C  
HETATM   12  N   UNL     1      -9.898  16.015  69.484  1.00  0.00    -0.255 N  
HETATM   13  C   UNL     1     -10.261  17.161  68.788  1.00  0.00    -0.332 C  
HETATM   14  C   UNL     1     -11.968  15.609  68.545  1.00  0.00    -0.127 A  
HETATM   15  N   UNL     1     -13.131  15.059  68.126  1.00  0.00     2.105 NA 
HETATM   16  C   UNL     1     -11.570  16.880  68.182  1.00  0.00     0.398 A  
HETATM   17  O   UNL     1      -9.681  18.229  68.721  1.00  0.00    -0.338 OA 
HETATM   18  C   UNL     1     -13.864  15.877  67.328  1.00  0.00     7.900 A  
HETATM   19  N   UNL     1     -12.285  17.712  67.401  1.00  0.00     2.857 NA 
HETATM   20  C   UNL     1     -13.453  17.167  66.978  1.00  0.00     9.298 A  
BRANCH  12  21
HETATM   21  C   UNL     1      -8.853  15.933  70.410  1.00  0.00     1.519 A  
HETATM   22 CL   UNL     1      -5.468  15.338  73.263  1.00  0.00     0.428 Cl 
HETATM   23  C   UNL     1      -7.991  16.090  72.651  1.00  0.00    12.614 A  
HETATM   24  C   UNL     1      -6.655  15.339  70.837  1.00  0.00     0.581 A  
HETATM   25  N   UNL     1      -7.655  15.524  69.940  1.00  0.00    -0.065 NA 
HETATM   26  C   UNL     1      -9.051  16.238  71.754  1.00  0.00     7.591 A  
HETATM   27  C   UNL     1      -6.776  15.606  72.188  1.00  0.00     3.473 A  
ENDBRANCH  12  21
ENDBRANCH  10  11
ENDBRANCH   7  10
TORSDOF 3
ENDMDL
