MODEL        1
REMARK 921   NORMALIZED FREE ENERGY PREDICTED BY IDOCK:   -6.17 KCAL/MOL
REMARK 922        TOTAL FREE ENERGY PREDICTED BY IDOCK:  -10.26 KCAL/MOL
REMARK 923 INTER-LIGAND FREE ENERGY PREDICTED BY IDOCK:   -9.05 KCAL/MOL
REMARK 924 INTRA-LIGAND FREE ENERGY PREDICTED BY IDOCK:   -1.21 KCAL/MOL
REMARK 927      BINDING AFFINITY PREDICTED BY RF-SCORE:    0.00 PKD
ROOT
HETATM    1  C   UNL     1     -11.087   6.149  72.430  1.00  0.00    -0.275 C  
HETATM    2  O   UNL     1     -11.734   7.263  73.048  1.00  0.00    -0.118 OA 
ENDROOT
BRANCH   2   3
HETATM    3  C   UNL     1     -11.752   8.397  72.280  1.00  0.00    -0.385 A  
HETATM    4  C   UNL     1     -12.887   9.202  72.381  1.00  0.00    -0.367 A  
HETATM    5  O   UNL     1     -13.913   8.848  73.213  1.00  0.00    -1.203 OA 
HETATM    6  C   UNL     1     -13.025  10.360  71.620  1.00  0.00    -0.581 A  
HETATM    7  C   UNL     1     -12.007  10.716  70.734  1.00  0.00    -0.477 A  
HETATM    8  H   UNL     1     -14.685   9.397  73.282  1.00  0.00     0.000 HD 
HETATM    9  C   UNL     1     -10.848   9.937  70.630  1.00  0.00    -0.400 A  
HETATM   10  C   UNL     1     -10.719   8.787  71.428  1.00  0.00    -0.356 A  
BRANCH   9  11
HETATM   11  C   UNL     1      -9.774  10.252  69.622  1.00  0.00    -0.185 C  
BRANCH  11  12
HETATM   12  N   UNL     1     -10.291  10.976  68.499  1.00  0.00    -0.182 N  
HETATM   13  C   UNL     1      -9.576  11.988  67.902  1.00  0.00    -0.196 C  
HETATM   14  H   UNL     1     -11.211  10.735  68.133  1.00  0.00     0.000 HD 
HETATM   15  O   UNL     1      -8.465  12.342  68.253  1.00  0.00    -0.171 OA 
BRANCH  13  16
HETATM   16  C   UNL     1     -10.360  12.673  66.815  1.00  0.00    -0.246 C  
BRANCH  16  17
HETATM   17  C   UNL     1     -11.755  13.097  67.252  1.00  0.00    -0.425 C  
BRANCH  17  18
HETATM   18  C   UNL     1     -11.786  14.462  67.955  1.00  0.00    -0.361 C  
BRANCH  18  19
HETATM   19  C   UNL     1     -11.748  14.425  69.489  1.00  0.00    -0.362 C  
BRANCH  19  20
HETATM   20  C   UNL     1     -12.333  15.640  70.159  1.00  0.00    -0.366 C  
HETATM   21  C   UNL     1     -12.814  15.703  71.413  1.00  0.00    -0.546 C  
HETATM   22  C   UNL     1     -12.730  14.617  72.457  1.00  0.00    -0.448 C  
HETATM   23  C   UNL     1     -13.971  13.726  72.447  1.00  0.00    -0.651 C  
HETATM   24  C   UNL     1     -12.523  15.236  73.837  1.00  0.00    -0.752 C  
ENDBRANCH  19  20
ENDBRANCH  18  19
ENDBRANCH  17  18
ENDBRANCH  16  17
ENDBRANCH  13  16
ENDBRANCH  11  12
ENDBRANCH   9  11
ENDBRANCH   2   3
TORSDOF 8
ENDMDL
MODEL        2
REMARK 921   NORMALIZED FREE ENERGY PREDICTED BY IDOCK:   -6.16 KCAL/MOL
REMARK 922        TOTAL FREE ENERGY PREDICTED BY IDOCK:  -10.25 KCAL/MOL
REMARK 923 INTER-LIGAND FREE ENERGY PREDICTED BY IDOCK:   -9.45 KCAL/MOL
REMARK 924 INTRA-LIGAND FREE ENERGY PREDICTED BY IDOCK:   -0.79 KCAL/MOL
REMARK 927      BINDING AFFINITY PREDICTED BY RF-SCORE:    0.00 PKD
ROOT
HETATM    1  C   UNL     1     -12.409  12.487  63.341  1.00  0.00    -0.477 C  
HETATM    2  O   UNL     1     -12.616  13.802  63.859  1.00  0.00    -0.701 OA 
ENDROOT
BRANCH   2   3
HETATM    3  C   UNL     1     -11.691  14.187  64.793  1.00  0.00    -0.410 A  
HETATM    4  C   UNL     1     -11.268  15.516  64.744  1.00  0.00    -0.390 A  
HETATM    5  O   UNL     1     -11.770  16.365  63.797  1.00  0.00    -1.553 OA 
HETATM    6  C   UNL     1     -10.306  16.005  65.624  1.00  0.00    -0.414 A  
HETATM    7  C   UNL     1      -9.751  15.143  66.570  1.00  0.00    -0.290 A  
HETATM    8  H   UNL     1     -11.483  17.270  63.763  1.00  0.00     0.000 HD 
HETATM    9  C   UNL     1     -10.174  13.811  66.656  1.00  0.00    -0.276 A  
HETATM   10  C   UNL     1     -11.166  13.346  65.775  1.00  0.00    -0.305 A  
BRANCH   9  11
HETATM   11  C   UNL     1      -9.531  12.840  67.610  1.00  0.00    -0.190 C  
BRANCH  11  12
HETATM   12  N   UNL     1     -10.290  12.694  68.817  1.00  0.00    -0.390 N  
HETATM   13  C   UNL     1     -11.148  11.636  69.007  1.00  0.00    -0.241 C  
HETATM   14  H   UNL     1     -10.192  13.392  69.554  1.00  0.00     0.000 HD 
HETATM   15  O   UNL     1     -11.326  10.744  68.198  1.00  0.00    -0.290 OA 
BRANCH  13  16
HETATM   16  C   UNL     1     -11.914  11.750  70.297  1.00  0.00    -0.429 C  
BRANCH  16  17
HETATM   17  C   UNL     1     -12.015  10.435  71.058  1.00  0.00    -0.481 C  
BRANCH  17  18
HETATM   18  C   UNL     1     -13.364  10.241  71.767  1.00  0.00    -0.476 C  
BRANCH  18  19
HETATM   19  C   UNL     1     -13.617   8.846  72.353  1.00  0.00    -0.500 C  
BRANCH  19  20
HETATM   20  C   UNL     1     -13.211   7.707  71.456  1.00  0.00    -0.380 C  
HETATM   21  C   UNL     1     -12.201   6.846  71.673  1.00  0.00    -0.403 C  
HETATM   22  C   UNL     1     -11.366   6.745  72.925  1.00  0.00    -0.182 C  
HETATM   23  C   UNL     1     -10.099   7.592  72.831  1.00  0.00    -0.315 C  
HETATM   24  C   UNL     1     -11.019   5.284  73.203  1.00  0.00    -0.362 C  
ENDBRANCH  19  20
ENDBRANCH  18  19
ENDBRANCH  17  18
ENDBRANCH  16  17
ENDBRANCH  13  16
ENDBRANCH  11  12
ENDBRANCH   9  11
ENDBRANCH   2   3
TORSDOF 8
ENDMDL
MODEL        3
REMARK 921   NORMALIZED FREE ENERGY PREDICTED BY IDOCK:   -6.07 KCAL/MOL
REMARK 922        TOTAL FREE ENERGY PREDICTED BY IDOCK:  -10.12 KCAL/MOL
REMARK 923 INTER-LIGAND FREE ENERGY PREDICTED BY IDOCK:   -8.69 KCAL/MOL
REMARK 924 INTRA-LIGAND FREE ENERGY PREDICTED BY IDOCK:   -1.43 KCAL/MOL
REMARK 927      BINDING AFFINITY PREDICTED BY RF-SCORE:    0.00 PKD
ROOT
HETATM    1  C   UNL     1     -10.714   9.141  70.691  1.00  0.00    -0.254 C  
HETATM    2  O   UNL     1     -12.052   9.590  70.467  1.00  0.00    -0.208 OA 
ENDROOT
BRANCH   2   3
HETATM    3  C   UNL     1     -12.228  10.937  70.646  1.00  0.00    -0.376 A  
HETATM    4  C   UNL     1     -12.946  11.328  71.777  1.00  0.00    -0.414 A  
HETATM    5  O   UNL     1     -13.437  10.390  72.642  1.00  0.00    -0.502 OA 
HETATM    6  C   UNL     1     -13.212  12.670  72.038  1.00  0.00    -0.531 A  
HETATM    7  C   UNL     1     -12.756  13.640  71.145  1.00  0.00    -0.432 A  
HETATM    8  H   UNL     1     -13.925  10.657  73.412  1.00  0.00     0.000 HD 
HETATM    9  C   UNL     1     -12.014  13.275  70.014  1.00  0.00    -0.399 A  
HETATM   10  C   UNL     1     -11.733  11.917  69.785  1.00  0.00    -0.403 A  
BRANCH   9  11
HETATM   11  C   UNL     1     -11.582  14.293  68.993  1.00  0.00    -0.305 C  
BRANCH  11  12
HETATM   12  N   UNL     1     -12.249  14.108  67.738  1.00  0.00    -0.569 N  
HETATM   13  C   UNL     1     -11.575  14.196  66.542  1.00  0.00    -0.375 C  
HETATM   14  H   UNL     1     -13.248  13.905  67.731  1.00  0.00     0.000 HD 
HETATM   15  O   UNL     1     -10.382  14.418  66.443  1.00  0.00    -0.276 OA 
BRANCH  13  16
HETATM   16  C   UNL     1     -12.497  14.072  65.359  1.00  0.00    -0.520 C  
BRANCH  16  17
HETATM   17  C   UNL     1     -12.727  12.632  64.921  1.00  0.00    -0.450 C  
BRANCH  17  18
HETATM   18  C   UNL     1     -12.113  12.305  63.551  1.00  0.00    -0.649 C  
BRANCH  18  19
HETATM   19  C   UNL     1     -10.582  12.217  63.509  1.00  0.00    -0.488 C  
BRANCH  19  20
HETATM   20  C   UNL     1     -10.034  10.816  63.560  1.00  0.00    -0.403 C  
HETATM   21  C   UNL     1      -9.753  10.112  64.671  1.00  0.00    -0.377 C  
HETATM   22  C   UNL     1     -10.068  10.518  66.089  1.00  0.00    -0.306 C  
HETATM   23  C   UNL     1      -8.901  11.258  66.739  1.00  0.00    -0.170 C  
HETATM   24  C   UNL     1     -10.451   9.289  66.910  1.00  0.00    -0.284 C  
ENDBRANCH  19  20
ENDBRANCH  18  19
ENDBRANCH  17  18
ENDBRANCH  16  17
ENDBRANCH  13  16
ENDBRANCH  11  12
ENDBRANCH   9  11
ENDBRANCH   2   3
TORSDOF 8
ENDMDL
MODEL        4
REMARK 921   NORMALIZED FREE ENERGY PREDICTED BY IDOCK:   -6.03 KCAL/MOL
REMARK 922        TOTAL FREE ENERGY PREDICTED BY IDOCK:  -10.07 KCAL/MOL
REMARK 923 INTER-LIGAND FREE ENERGY PREDICTED BY IDOCK:   -9.41 KCAL/MOL
REMARK 924 INTRA-LIGAND FREE ENERGY PREDICTED BY IDOCK:   -0.66 KCAL/MOL
REMARK 927      BINDING AFFINITY PREDICTED BY RF-SCORE:    0.00 PKD
ROOT
HETATM    1  C   UNL     1     -12.457  12.466  63.337  1.00  0.00    -0.446 C  
HETATM    2  O   UNL     1     -12.506  13.846  63.702  1.00  0.00    -0.768 OA 
ENDROOT
BRANCH   2   3
HETATM    3  C   UNL     1     -11.648  14.189  64.713  1.00  0.00    -0.396 A  
HETATM    4  C   UNL     1     -11.237  15.522  64.761  1.00  0.00    -0.390 A  
HETATM    5  O   UNL     1     -11.685  16.415  63.828  1.00  0.00    -1.553 OA 
HETATM    6  C   UNL     1     -10.340  15.971  65.727  1.00  0.00    -0.398 A  
HETATM    7  C   UNL     1      -9.839  15.064  66.662  1.00  0.00    -0.266 A  
HETATM    8  H   UNL     1     -11.406  17.323  63.860  1.00  0.00     0.000 HD 
HETATM    9  C   UNL     1     -10.253  13.726  66.650  1.00  0.00    -0.276 A  
HETATM   10  C   UNL     1     -11.180  13.302  65.683  1.00  0.00    -0.304 A  
BRANCH   9  11
HETATM   11  C   UNL     1      -9.664  12.712  67.594  1.00  0.00    -0.197 C  
BRANCH  11  12
HETATM   12  N   UNL     1     -10.394  12.638  68.824  1.00  0.00    -0.390 N  
HETATM   13  C   UNL     1     -11.413  11.734  69.006  1.00  0.00    -0.297 C  
HETATM   14  H   UNL     1     -10.151  13.273  69.585  1.00  0.00     0.000 HD 
HETATM   15  O   UNL     1     -11.770  10.925  68.169  1.00  0.00    -0.506 OA 
BRANCH  13  16
HETATM   16  C   UNL     1     -12.102  11.913  70.332  1.00  0.00    -0.421 C  
BRANCH  16  17
HETATM   17  C   UNL     1     -12.830  10.663  70.809  1.00  0.00    -0.439 C  
BRANCH  17  18
HETATM   18  C   UNL     1     -11.950   9.729  71.654  1.00  0.00    -0.454 C  
BRANCH  18  19
HETATM   19  C   UNL     1     -11.095   8.725  70.870  1.00  0.00    -0.320 C  
BRANCH  19  20
HETATM   20  C   UNL     1     -11.570   7.299  70.956  1.00  0.00    -0.329 C  
HETATM   21  C   UNL     1     -11.273   6.309  70.095  1.00  0.00    -0.470 C  
HETATM   22  C   UNL     1     -10.286   6.381  68.956  1.00  0.00    -0.238 C  
HETATM   23  C   UNL     1     -10.962   6.782  67.647  1.00  0.00    -0.346 C  
HETATM   24  C   UNL     1      -9.568   5.042  68.804  1.00  0.00    -0.209 C  
ENDBRANCH  19  20
ENDBRANCH  18  19
ENDBRANCH  17  18
ENDBRANCH  16  17
ENDBRANCH  13  16
ENDBRANCH  11  12
ENDBRANCH   9  11
ENDBRANCH   2   3
TORSDOF 8
ENDMDL
MODEL        5
REMARK 921   NORMALIZED FREE ENERGY PREDICTED BY IDOCK:   -6.00 KCAL/MOL
REMARK 922        TOTAL FREE ENERGY PREDICTED BY IDOCK:  -10.02 KCAL/MOL
REMARK 923 INTER-LIGAND FREE ENERGY PREDICTED BY IDOCK:   -8.71 KCAL/MOL
REMARK 924 INTRA-LIGAND FREE ENERGY PREDICTED BY IDOCK:   -1.31 KCAL/MOL
REMARK 927      BINDING AFFINITY PREDICTED BY RF-SCORE:    0.00 PKD
ROOT
HETATM    1  C   UNL     1      -9.323  17.219  66.707  1.00  0.00    -0.259 C  
HETATM    2  O   UNL     1      -9.887  16.769  65.473  1.00  0.00    -0.564 OA 
ENDROOT
BRANCH   2   3
HETATM    3  C   UNL     1     -10.376  15.490  65.515  1.00  0.00    -0.394 A  
HETATM    4  C   UNL     1     -11.397  15.182  64.616  1.00  0.00    -0.356 A  
HETATM    5  O   UNL     1     -11.865  16.131  63.751  1.00  0.00    -1.408 OA 
HETATM    6  C   UNL     1     -11.989  13.922  64.595  1.00  0.00    -0.443 A  
HETATM    7  C   UNL     1     -11.554  12.952  65.499  1.00  0.00    -0.395 A  
HETATM    8  H   UNL     1     -12.560  15.921  63.138  1.00  0.00     0.000 HD 
HETATM    9  C   UNL     1     -10.516  13.229  66.397  1.00  0.00    -0.286 A  
HETATM   10  C   UNL     1      -9.914  14.499  66.381  1.00  0.00    -0.304 A  
BRANCH   9  11
HETATM   11  C   UNL     1     -10.085  12.229  67.437  1.00  0.00    -0.200 C  
BRANCH  11  12
HETATM   12  N   UNL     1     -11.099  12.017  68.427  1.00  0.00    -0.226 N  
HETATM   13  C   UNL     1     -11.234  10.812  69.076  1.00  0.00    -0.262 C  
HETATM   14  H   UNL     1     -11.737  12.778  68.657  1.00  0.00     0.000 HD 
HETATM   15  O   UNL     1     -10.516   9.847  68.886  1.00  0.00    -0.193 OA 
BRANCH  13  16
HETATM   16  C   UNL     1     -12.429  10.789  69.990  1.00  0.00    -0.317 C  
BRANCH  16  17
HETATM   17  C   UNL     1     -12.209  11.548  71.292  1.00  0.00    -0.198 C  
BRANCH  17  18
HETATM   18  C   UNL     1     -13.516  11.964  71.984  1.00  0.00    -0.336 C  
BRANCH  18  19
HETATM   19  C   UNL     1     -13.537  13.379  72.577  1.00  0.00    -0.659 C  
BRANCH  19  20
HETATM   20  C   UNL     1     -14.244  14.402  71.728  1.00  0.00    -0.572 C  
HETATM   21  C   UNL     1     -13.669  15.239  70.846  1.00  0.00    -0.363 C  
HETATM   22  C   UNL     1     -12.223  15.225  70.414  1.00  0.00    -0.404 C  
HETATM   23  C   UNL     1     -11.370  16.164  71.263  1.00  0.00    -0.347 C  
HETATM   24  C   UNL     1     -12.119  15.590  68.935  1.00  0.00    -0.219 C  
ENDBRANCH  19  20
ENDBRANCH  18  19
ENDBRANCH  17  18
ENDBRANCH  16  17
ENDBRANCH  13  16
ENDBRANCH  11  12
ENDBRANCH   9  11
ENDBRANCH   2   3
TORSDOF 8
ENDMDL
MODEL        6
REMARK 921   NORMALIZED FREE ENERGY PREDICTED BY IDOCK:   -5.95 KCAL/MOL
REMARK 922        TOTAL FREE ENERGY PREDICTED BY IDOCK:   -9.95 KCAL/MOL
REMARK 923 INTER-LIGAND FREE ENERGY PREDICTED BY IDOCK:   -9.46 KCAL/MOL
REMARK 924 INTRA-LIGAND FREE ENERGY PREDICTED BY IDOCK:   -0.49 KCAL/MOL
REMARK 927      BINDING AFFINITY PREDICTED BY RF-SCORE:    0.00 PKD
ROOT
HETATM    1  C   UNL     1     -10.759  17.456  65.110  1.00  0.00     0.139 C  
HETATM    2  O   UNL     1     -11.220  16.344  64.341  1.00  0.00    -0.807 OA 
ENDROOT
BRANCH   2   3
HETATM    3  C   UNL     1     -11.396  15.196  65.067  1.00  0.00    -0.380 A  
HETATM    4  C   UNL     1     -12.009  14.129  64.410  1.00  0.00    -0.457 A  
HETATM    5  O   UNL     1     -12.404  14.255  63.107  1.00  0.00    -1.096 OA 
HETATM    6  C   UNL     1     -12.268  12.926  65.064  1.00  0.00    -0.515 A  
HETATM    7  C   UNL     1     -11.911  12.793  66.406  1.00  0.00    -0.472 A  
HETATM    8  H   UNL     1     -12.820  13.528  62.659  1.00  0.00     0.000 HD 
HETATM    9  C   UNL     1     -11.274  13.841  67.082  1.00  0.00    -0.327 A  
HETATM   10  C   UNL     1     -10.998  15.035  66.394  1.00  0.00    -0.336 A  
BRANCH   9  11
HETATM   11  C   UNL     1     -10.956  13.752  68.551  1.00  0.00    -0.262 C  
BRANCH  11  12
HETATM   12  N   UNL     1     -12.080  14.107  69.365  1.00  0.00    -0.357 N  
HETATM   13  C   UNL     1     -11.965  14.999  70.405  1.00  0.00    -0.323 C  
HETATM   14  H   UNL     1     -12.989  13.688  69.168  1.00  0.00     0.000 HD 
HETATM   15  O   UNL     1     -10.932  15.565  70.713  1.00  0.00    -0.326 OA 
BRANCH  13  16
HETATM   16  C   UNL     1     -13.247  15.135  71.182  1.00  0.00    -0.535 C  
BRANCH  16  17
HETATM   17  C   UNL     1     -13.266  14.315  72.465  1.00  0.00    -0.581 C  
BRANCH  17  18
HETATM   18  C   UNL     1     -13.833  12.900  72.277  1.00  0.00    -0.464 C  
BRANCH  18  19
HETATM   19  C   UNL     1     -12.865  11.865  71.687  1.00  0.00    -0.417 C  
BRANCH  19  20
HETATM   20  C   UNL     1     -13.406  10.460  71.639  1.00  0.00    -0.432 C  
HETATM   21  C   UNL     1     -12.680   9.328  71.658  1.00  0.00    -0.442 C  
HETATM   22  C   UNL     1     -11.193   9.224  71.887  1.00  0.00    -0.331 C  
HETATM   23  C   UNL     1     -10.417   9.231  70.571  1.00  0.00    -0.312 C  
HETATM   24  C   UNL     1     -10.876   7.967  72.693  1.00  0.00    -0.428 C  
ENDBRANCH  19  20
ENDBRANCH  18  19
ENDBRANCH  17  18
ENDBRANCH  16  17
ENDBRANCH  13  16
ENDBRANCH  11  12
ENDBRANCH   9  11
ENDBRANCH   2   3
TORSDOF 8
ENDMDL
MODEL        7
REMARK 921   NORMALIZED FREE ENERGY PREDICTED BY IDOCK:   -5.94 KCAL/MOL
REMARK 922        TOTAL FREE ENERGY PREDICTED BY IDOCK:   -9.93 KCAL/MOL
REMARK 923 INTER-LIGAND FREE ENERGY PREDICTED BY IDOCK:   -8.87 KCAL/MOL
REMARK 924 INTRA-LIGAND FREE ENERGY PREDICTED BY IDOCK:   -1.06 KCAL/MOL
REMARK 927      BINDING AFFINITY PREDICTED BY RF-SCORE:    0.00 PKD
ROOT
HETATM    1  C   UNL     1      -9.450  11.196  63.176  1.00  0.00    -0.357 C  
HETATM    2  O   UNL     1     -10.659  11.952  63.095  1.00  0.00    -0.373 OA 
ENDROOT
BRANCH   2   3
HETATM    3  C   UNL     1     -11.147  12.358  64.310  1.00  0.00    -0.349 A  
HETATM    4  C   UNL     1     -12.052  13.420  64.296  1.00  0.00    -0.424 A  
HETATM    5  O   UNL     1     -12.412  14.005  63.114  1.00  0.00    -1.137 OA 
HETATM    6  C   UNL     1     -12.584  13.935  65.476  1.00  0.00    -0.560 A  
HETATM    7  C   UNL     1     -12.197  13.378  66.695  1.00  0.00    -0.391 A  
HETATM    8  H   UNL     1     -13.029  14.728  63.105  1.00  0.00     0.000 HD 
HETATM    9  C   UNL     1     -11.307  12.297  66.735  1.00  0.00    -0.395 A  
HETATM   10  C   UNL     1     -10.804  11.776  65.530  1.00  0.00    -0.348 A  
BRANCH   9  11
HETATM   11  C   UNL     1     -10.809  11.734  68.039  1.00  0.00    -0.213 C  
BRANCH  11  12
HETATM   12  N   UNL     1     -11.264  12.500  69.161  1.00  0.00    -0.338 N  
HETATM   13  C   UNL     1     -12.106  11.964  70.107  1.00  0.00    -0.302 C  
HETATM   14  H   UNL     1     -10.957  13.467  69.261  1.00  0.00     0.000 HD 
HETATM   15  O   UNL     1     -12.518  10.819  70.089  1.00  0.00    -0.323 OA 
BRANCH  13  16
HETATM   16  C   UNL     1     -12.534  12.982  71.130  1.00  0.00    -0.364 C  
BRANCH  16  17
HETATM   17  C   UNL     1     -11.812  14.315  70.995  1.00  0.00    -0.306 C  
BRANCH  17  18
HETATM   18  C   UNL     1     -12.617  15.371  70.222  1.00  0.00    -0.377 C  
BRANCH  18  19
HETATM   19  C   UNL     1     -11.897  16.025  69.035  1.00  0.00    -0.258 C  
BRANCH  19  20
HETATM   20  C   UNL     1     -10.518  16.543  69.348  1.00  0.00    -0.320 C  
HETATM   21  C   UNL     1      -9.915  17.597  68.770  1.00  0.00    -0.358 C  
HETATM   22  C   UNL     1     -10.546  18.567  67.802  1.00  0.00    -0.422 C  
HETATM   23  C   UNL     1     -10.322  18.146  66.352  1.00  0.00    -0.404 C  
HETATM   24  C   UNL     1     -10.001  19.973  68.045  1.00  0.00    -0.550 C  
ENDBRANCH  19  20
ENDBRANCH  18  19
ENDBRANCH  17  18
ENDBRANCH  16  17
ENDBRANCH  13  16
ENDBRANCH  11  12
ENDBRANCH   9  11
ENDBRANCH   2   3
TORSDOF 8
ENDMDL
MODEL        8
REMARK 921   NORMALIZED FREE ENERGY PREDICTED BY IDOCK:   -5.94 KCAL/MOL
REMARK 922        TOTAL FREE ENERGY PREDICTED BY IDOCK:   -9.93 KCAL/MOL
REMARK 923 INTER-LIGAND FREE ENERGY PREDICTED BY IDOCK:   -8.93 KCAL/MOL
REMARK 924 INTRA-LIGAND FREE ENERGY PREDICTED BY IDOCK:   -1.00 KCAL/MOL
REMARK 927      BINDING AFFINITY PREDICTED BY RF-SCORE:    0.00 PKD
ROOT
HETATM    1  C   UNL     1     -12.026  12.317  63.456  1.00  0.00    -0.533 C  
HETATM    2  O   UNL     1     -12.196  13.709  63.730  1.00  0.00    -0.606 OA 
ENDROOT
BRANCH   2   3
HETATM    3  C   UNL     1     -11.327  14.206  64.665  1.00  0.00    -0.371 A  
HETATM    4  C   UNL     1     -11.108  15.584  64.644  1.00  0.00    -0.359 A  
HETATM    5  O   UNL     1     -11.742  16.370  63.723  1.00  0.00    -1.553 OA 
HETATM    6  C   UNL     1     -10.219  16.191  65.528  1.00  0.00    -0.360 A  
HETATM    7  C   UNL     1      -9.530  15.399  66.448  1.00  0.00    -0.325 A  
HETATM    8  H   UNL     1     -11.593  17.308  63.709  1.00  0.00     0.000 HD 
HETATM    9  C   UNL     1      -9.748  14.017  66.504  1.00  0.00    -0.305 A  
HETATM   10  C   UNL     1     -10.671  13.431  65.621  1.00  0.00    -0.283 A  
BRANCH   9  11
HETATM   11  C   UNL     1      -8.957  13.131  67.429  1.00  0.00    -0.201 C  
BRANCH  11  12
HETATM   12  N   UNL     1      -9.732  12.023  67.902  1.00  0.00    -0.189 N  
HETATM   13  C   UNL     1      -9.138  10.882  68.388  1.00  0.00    -0.164 C  
HETATM   14  H   UNL     1     -10.750  12.082  67.878  1.00  0.00     0.000 HD 
HETATM   15  O   UNL     1      -7.935  10.718  68.473  1.00  0.00    -0.114 OA 
BRANCH  13  16
HETATM   16  C   UNL     1     -10.146   9.816  68.725  1.00  0.00    -0.187 C  
BRANCH  16  17
HETATM   17  C   UNL     1     -11.511  10.374  69.106  1.00  0.00    -0.261 C  
BRANCH  17  18
HETATM   18  C   UNL     1     -11.726  10.480  70.623  1.00  0.00    -0.453 C  
BRANCH  18  19
HETATM   19  C   UNL     1     -12.451  11.742  71.109  1.00  0.00    -0.390 C  
BRANCH  19  20
HETATM   20  C   UNL     1     -12.391  12.905  70.155  1.00  0.00    -0.249 C  
HETATM   21  C   UNL     1     -12.517  14.205  70.477  1.00  0.00    -0.431 C  
HETATM   22  C   UNL     1     -12.592  14.777  71.871  1.00  0.00    -0.404 C  
HETATM   23  C   UNL     1     -14.036  14.927  72.344  1.00  0.00    -0.582 C  
HETATM   24  C   UNL     1     -11.865  16.119  71.922  1.00  0.00    -0.605 C  
ENDBRANCH  19  20
ENDBRANCH  18  19
ENDBRANCH  17  18
ENDBRANCH  16  17
ENDBRANCH  13  16
ENDBRANCH  11  12
ENDBRANCH   9  11
ENDBRANCH   2   3
TORSDOF 8
ENDMDL
MODEL        9
REMARK 921   NORMALIZED FREE ENERGY PREDICTED BY IDOCK:   -5.93 KCAL/MOL
REMARK 922        TOTAL FREE ENERGY PREDICTED BY IDOCK:   -9.91 KCAL/MOL
REMARK 923 INTER-LIGAND FREE ENERGY PREDICTED BY IDOCK:   -8.96 KCAL/MOL
REMARK 924 INTRA-LIGAND FREE ENERGY PREDICTED BY IDOCK:   -0.96 KCAL/MOL
REMARK 927      BINDING AFFINITY PREDICTED BY RF-SCORE:    0.00 PKD
ROOT
HETATM    1  C   UNL     1     -11.928  14.729  67.045  1.00  0.00    -0.203 C  
HETATM    2  O   UNL     1     -12.612  13.986  66.034  1.00  0.00    -0.481 OA 
ENDROOT
BRANCH   2   3
HETATM    3  C   UNL     1     -11.878  12.959  65.501  1.00  0.00    -0.411 A  
HETATM    4  C   UNL     1     -11.690  12.977  64.119  1.00  0.00    -0.412 A  
HETATM    5  O   UNL     1     -12.225  13.982  63.362  1.00  0.00    -1.039 OA 
HETATM    6  C   UNL     1     -10.989  11.964  63.469  1.00  0.00    -0.505 A  
HETATM    7  C   UNL     1     -10.470  10.908  64.218  1.00  0.00    -0.405 A  
HETATM    8  H   UNL     1     -12.097  13.995  62.421  1.00  0.00     0.000 HD 
HETATM    9  C   UNL     1     -10.626  10.877  65.610  1.00  0.00    -0.233 A  
HETATM   10  C   UNL     1     -11.313  11.925  66.248  1.00  0.00    -0.394 A  
BRANCH   9  11
HETATM   11  C   UNL     1     -10.150   9.709  66.431  1.00  0.00    -0.247 C  
BRANCH  11  12
HETATM   12  N   UNL     1      -9.896  10.078  67.791  1.00  0.00    -0.153 N  
HETATM   13  C   UNL     1     -10.068   9.188  68.825  1.00  0.00    -0.197 C  
HETATM   14  H   UNL     1      -9.580  11.025  67.999  1.00  0.00     0.000 HD 
HETATM   15  O   UNL     1     -10.426   8.033  68.684  1.00  0.00    -0.207 OA 
BRANCH  13  16
HETATM   16  C   UNL     1      -9.846   9.828  70.169  1.00  0.00    -0.306 C  
BRANCH  16  17
HETATM   17  C   UNL     1     -11.006   9.627  71.134  1.00  0.00    -0.430 C  
BRANCH  17  18
HETATM   18  C   UNL     1     -12.313  10.281  70.663  1.00  0.00    -0.416 C  
BRANCH  18  19
HETATM   19  C   UNL     1     -12.616  11.667  71.248  1.00  0.00    -0.425 C  
BRANCH  19  20
HETATM   20  C   UNL     1     -12.213  12.819  70.366  1.00  0.00    -0.371 C  
HETATM   21  C   UNL     1     -12.322  14.126  70.666  1.00  0.00    -0.435 C  
HETATM   22  C   UNL     1     -12.726  14.706  71.999  1.00  0.00    -0.405 C  
HETATM   23  C   UNL     1     -14.229  14.969  72.070  1.00  0.00    -0.649 C  
HETATM   24  C   UNL     1     -11.941  15.987  72.269  1.00  0.00    -0.633 C  
ENDBRANCH  19  20
ENDBRANCH  18  19
ENDBRANCH  17  18
ENDBRANCH  16  17
ENDBRANCH  13  16
ENDBRANCH  11  12
ENDBRANCH   9  11
ENDBRANCH   2   3
TORSDOF 8
ENDMDL
MODEL       10
REMARK 921   NORMALIZED FREE ENERGY PREDICTED BY IDOCK:   -5.90 KCAL/MOL
REMARK 922        TOTAL FREE ENERGY PREDICTED BY IDOCK:   -9.88 KCAL/MOL
REMARK 923 INTER-LIGAND FREE ENERGY PREDICTED BY IDOCK:   -8.68 KCAL/MOL
REMARK 924 INTRA-LIGAND FREE ENERGY PREDICTED BY IDOCK:   -1.20 KCAL/MOL
REMARK 927      BINDING AFFINITY PREDICTED BY RF-SCORE:    0.00 PKD
ROOT
HETATM    1  C   UNL     1     -14.392  15.156  72.070  1.00  0.00    -0.586 C  
HETATM    2  O   UNL     1     -13.132  14.528  72.308  1.00  0.00    -0.328 OA 
ENDROOT
BRANCH   2   3
HETATM    3  C   UNL     1     -12.328  14.448  71.201  1.00  0.00    -0.358 A  
HETATM    4  C   UNL     1     -11.578  15.582  70.889  1.00  0.00    -0.375 A  
HETATM    5  O   UNL     1     -11.665  16.702  71.668  1.00  0.00    -0.644 OA 
HETATM    6  C   UNL     1     -10.755  15.621  69.767  1.00  0.00    -0.309 A  
HETATM    7  C   UNL     1     -10.686  14.502  68.936  1.00  0.00    -0.259 A  
HETATM    8  H   UNL     1     -11.153  17.474  71.456  1.00  0.00     0.000 HD 
HETATM    9  C   UNL     1     -11.411  13.343  69.239  1.00  0.00    -0.345 A  
HETATM   10  C   UNL     1     -12.215  13.317  70.392  1.00  0.00    -0.404 A  
BRANCH   9  11
HETATM   11  C   UNL     1     -11.419  12.155  68.314  1.00  0.00    -0.305 C  
BRANCH  11  12
HETATM   12  N   UNL     1     -11.959  12.481  67.028  1.00  0.00    -0.312 N  
HETATM   13  C   UNL     1     -11.438  11.951  65.871  1.00  0.00    -0.278 C  
HETATM   14  H   UNL     1     -12.750  13.123  66.969  1.00  0.00     0.000 HD 
HETATM   15  O   UNL     1     -10.508  11.167  65.834  1.00  0.00    -0.252 OA 
BRANCH  13  16
HETATM   16  C   UNL     1     -12.094  12.518  64.641  1.00  0.00    -0.496 C  
BRANCH  16  17
HETATM   17  C   UNL     1     -12.129  14.040  64.621  1.00  0.00    -0.462 C  
BRANCH  17  18
HETATM   18  C   UNL     1     -10.741  14.684  64.748  1.00  0.00    -0.399 C  
BRANCH  18  19
HETATM   19  C   UNL     1     -10.715  16.115  65.303  1.00  0.00    -0.386 C  
BRANCH  19  20
HETATM   20  C   UNL     1      -9.503  16.442  66.133  1.00  0.00    -0.363 C  
HETATM   21  C   UNL     1      -9.310  17.563  66.851  1.00  0.00    -0.275 C  
HETATM   22  C   UNL     1     -10.325  18.652  67.097  1.00  0.00    -0.442 C  
HETATM   23  C   UNL     1     -10.219  19.769  66.061  1.00  0.00    -0.600 C  
HETATM   24  C   UNL     1     -10.160  19.209  68.509  1.00  0.00    -0.499 C  
ENDBRANCH  19  20
ENDBRANCH  18  19
ENDBRANCH  17  18
ENDBRANCH  16  17
ENDBRANCH  13  16
ENDBRANCH  11  12
ENDBRANCH   9  11
ENDBRANCH   2   3
TORSDOF 8
ENDMDL
MODEL       11
REMARK 921   NORMALIZED FREE ENERGY PREDICTED BY IDOCK:   -5.90 KCAL/MOL
REMARK 922        TOTAL FREE ENERGY PREDICTED BY IDOCK:   -9.88 KCAL/MOL
REMARK 923 INTER-LIGAND FREE ENERGY PREDICTED BY IDOCK:   -8.86 KCAL/MOL
REMARK 924 INTRA-LIGAND FREE ENERGY PREDICTED BY IDOCK:   -1.02 KCAL/MOL
REMARK 927      BINDING AFFINITY PREDICTED BY RF-SCORE:    0.00 PKD
ROOT
HETATM    1  C   UNL     1     -11.432   6.385  71.727  1.00  0.00    -0.300 C  
HETATM    2  O   UNL     1     -12.109   7.354  72.529  1.00  0.00    -0.199 OA 
ENDROOT
BRANCH   2   3
HETATM    3  C   UNL     1     -12.111   8.617  71.998  1.00  0.00    -0.375 A  
HETATM    4  C   UNL     1     -13.128   9.472  72.424  1.00  0.00    -0.349 A  
HETATM    5  O   UNL     1     -14.061   9.040  73.326  1.00  0.00    -1.218 OA 
HETATM    6  C   UNL     1     -13.245  10.766  71.924  1.00  0.00    -0.524 A  
HETATM    7  C   UNL     1     -12.328  11.211  70.971  1.00  0.00    -0.487 A  
HETATM    8  H   UNL     1     -14.752   9.623  73.617  1.00  0.00     0.000 HD 
HETATM    9  C   UNL     1     -11.285  10.381  70.542  1.00  0.00    -0.395 A  
HETATM   10  C   UNL     1     -11.170   9.088  71.082  1.00  0.00    -0.375 A  
BRANCH   9  11
HETATM   11  C   UNL     1     -10.334  10.806  69.456  1.00  0.00    -0.144 C  
BRANCH  11  12
HETATM   12  N   UNL     1     -10.622  12.127  68.980  1.00  0.00    -0.399 N  
HETATM   13  C   UNL     1     -11.507  12.347  67.950  1.00  0.00    -0.328 C  
HETATM   14  H   UNL     1     -10.159  12.924  69.415  1.00  0.00     0.000 HD 
HETATM   15  O   UNL     1     -12.122  11.467  67.375  1.00  0.00    -0.593 OA 
BRANCH  13  16
HETATM   16  C   UNL     1     -11.568  13.797  67.553  1.00  0.00    -0.387 C  
BRANCH  16  17
HETATM   17  C   UNL     1     -12.350  14.040  66.270  1.00  0.00    -0.482 C  
BRANCH  17  18
HETATM   18  C   UNL     1     -11.471  14.493  65.095  1.00  0.00    -0.368 C  
BRANCH  18  19
HETATM   19  C   UNL     1     -10.366  13.516  64.671  1.00  0.00    -0.406 C  
BRANCH  19  20
HETATM   20  C   UNL     1     -10.863  12.255  64.017  1.00  0.00    -0.439 C  
HETATM   21  C   UNL     1     -10.433  11.006  64.269  1.00  0.00    -0.427 C  
HETATM   22  C   UNL     1      -9.476  10.594  65.361  1.00  0.00    -0.263 C  
HETATM   23  C   UNL     1      -8.031  10.568  64.868  1.00  0.00    -0.063 C  
HETATM   24  C   UNL     1      -9.879   9.231  65.919  1.00  0.00    -0.335 C  
ENDBRANCH  19  20
ENDBRANCH  18  19
ENDBRANCH  17  18
ENDBRANCH  16  17
ENDBRANCH  13  16
ENDBRANCH  11  12
ENDBRANCH   9  11
ENDBRANCH   2   3
TORSDOF 8
ENDMDL
MODEL       12
REMARK 921   NORMALIZED FREE ENERGY PREDICTED BY IDOCK:   -5.90 KCAL/MOL
REMARK 922        TOTAL FREE ENERGY PREDICTED BY IDOCK:   -9.87 KCAL/MOL
REMARK 923 INTER-LIGAND FREE ENERGY PREDICTED BY IDOCK:   -9.18 KCAL/MOL
REMARK 924 INTRA-LIGAND FREE ENERGY PREDICTED BY IDOCK:   -0.68 KCAL/MOL
REMARK 927      BINDING AFFINITY PREDICTED BY RF-SCORE:    0.00 PKD
ROOT
HETATM    1  C   UNL     1     -11.627   6.397  71.086  1.00  0.00    -0.318 C  
HETATM    2  O   UNL     1     -12.320   7.251  71.998  1.00  0.00    -0.301 OA 
ENDROOT
BRANCH   2   3
HETATM    3  C   UNL     1     -12.293   8.577  71.654  1.00  0.00    -0.326 A  
HETATM    4  C   UNL     1     -13.199   9.411  72.310  1.00  0.00    -0.446 A  
HETATM    5  O   UNL     1     -14.058   8.899  73.243  1.00  0.00    -1.211 OA 
HETATM    6  C   UNL     1     -13.280  10.769  72.014  1.00  0.00    -0.466 A  
HETATM    7  C   UNL     1     -12.441  11.302  71.035  1.00  0.00    -0.503 A  
HETATM    8  H   UNL     1     -14.674   9.467  73.690  1.00  0.00     0.000 HD 
HETATM    9  C   UNL     1     -11.507  10.491  70.377  1.00  0.00    -0.427 A  
HETATM   10  C   UNL     1     -11.424   9.128  70.713  1.00  0.00    -0.337 A  
BRANCH   9  11
HETATM   11  C   UNL     1     -10.650  11.022  69.260  1.00  0.00    -0.201 C  
BRANCH  11  12
HETATM   12  N   UNL     1     -11.011  12.361  68.899  1.00  0.00    -0.271 N  
HETATM   13  C   UNL     1     -11.701  12.637  67.742  1.00  0.00    -0.356 C  
HETATM   14  H   UNL     1     -10.749  13.130  69.516  1.00  0.00     0.000 HD 
HETATM   15  O   UNL     1     -12.072  11.792  66.948  1.00  0.00    -0.566 OA 
BRANCH  13  16
HETATM   16  C   UNL     1     -11.873  14.115  67.521  1.00  0.00    -0.437 C  
BRANCH  16  17
HETATM   17  C   UNL     1     -11.485  14.566  66.119  1.00  0.00    -0.357 C  
BRANCH  17  18
HETATM   18  C   UNL     1      -9.977  14.810  65.952  1.00  0.00    -0.351 C  
BRANCH  18  19
HETATM   19  C   UNL     1      -9.489  16.229  66.271  1.00  0.00    -0.347 C  
BRANCH  19  20
HETATM   20  C   UNL     1     -10.429  17.324  65.842  1.00  0.00    -0.267 C  
HETATM   21  C   UNL     1     -10.508  18.558  66.374  1.00  0.00    -0.443 C  
HETATM   22  C   UNL     1      -9.574  19.149  67.400  1.00  0.00    -0.373 C  
HETATM   23  C   UNL     1     -10.087  18.933  68.823  1.00  0.00    -0.415 C  
HETATM   24  C   UNL     1      -9.369  20.636  67.122  1.00  0.00    -0.464 C  
ENDBRANCH  19  20
ENDBRANCH  18  19
ENDBRANCH  17  18
ENDBRANCH  16  17
ENDBRANCH  13  16
ENDBRANCH  11  12
ENDBRANCH   9  11
ENDBRANCH   2   3
TORSDOF 8
ENDMDL
MODEL       13
REMARK 921   NORMALIZED FREE ENERGY PREDICTED BY IDOCK:   -5.82 KCAL/MOL
REMARK 922        TOTAL FREE ENERGY PREDICTED BY IDOCK:   -9.75 KCAL/MOL
REMARK 923 INTER-LIGAND FREE ENERGY PREDICTED BY IDOCK:   -8.35 KCAL/MOL
REMARK 924 INTRA-LIGAND FREE ENERGY PREDICTED BY IDOCK:   -1.40 KCAL/MOL
REMARK 927      BINDING AFFINITY PREDICTED BY RF-SCORE:    0.00 PKD
ROOT
HETATM    1  C   UNL     1     -12.739  11.391  71.327  1.00  0.00    -0.393 C  
HETATM    2  O   UNL     1     -13.371  12.614  71.712  1.00  0.00    -0.418 OA 
ENDROOT
BRANCH   2   3
HETATM    3  C   UNL     1     -12.685  13.740  71.340  1.00  0.00    -0.367 A  
HETATM    4  C   UNL     1     -12.534  14.729  72.312  1.00  0.00    -0.327 A  
HETATM    5  O   UNL     1     -13.057  14.554  73.563  1.00  0.00    -0.564 OA 
HETATM    6  C   UNL     1     -11.883  15.928  72.031  1.00  0.00    -0.609 A  
HETATM    7  C   UNL     1     -11.379  16.143  70.748  1.00  0.00    -0.397 A  
HETATM    8  H   UNL     1     -12.953  15.227  74.225  1.00  0.00     0.000 HD 
HETATM    9  C   UNL     1     -11.498  15.157  69.760  1.00  0.00    -0.321 A  
HETATM   10  C   UNL     1     -12.134  13.944  70.074  1.00  0.00    -0.411 A  
BRANCH   9  11
HETATM   11  C   UNL     1     -11.039  15.398  68.347  1.00  0.00    -0.301 C  
BRANCH  11  12
HETATM   12  N   UNL     1     -11.864  14.718  67.393  1.00  0.00    -0.440 N  
HETATM   13  C   UNL     1     -11.578  14.738  66.048  1.00  0.00    -0.286 C  
HETATM   14  H   UNL     1     -12.684  14.207  67.719  1.00  0.00     0.000 HD 
HETATM   15  O   UNL     1     -10.618  15.304  65.559  1.00  0.00    -0.319 OA 
BRANCH  13  16
HETATM   16  C   UNL     1     -12.638  14.049  65.232  1.00  0.00    -0.495 C  
BRANCH  16  17
HETATM   17  C   UNL     1     -12.124  13.509  63.904  1.00  0.00    -0.493 C  
BRANCH  17  18
HETATM   18  C   UNL     1     -12.211  11.980  63.792  1.00  0.00    -0.600 C  
BRANCH  18  19
HETATM   19  C   UNL     1     -10.871  11.232  63.793  1.00  0.00    -0.424 C  
BRANCH  19  20
HETATM   20  C   UNL     1      -9.805  11.860  64.650  1.00  0.00    -0.207 C  
HETATM   21  C   UNL     1      -9.591  11.620  65.957  1.00  0.00    -0.249 C  
HETATM   22  C   UNL     1     -10.271  10.565  66.794  1.00  0.00    -0.288 C  
HETATM   23  C   UNL     1     -11.507  11.115  67.502  1.00  0.00    -0.296 C  
HETATM   24  C   UNL     1      -9.284   9.985  67.804  1.00  0.00    -0.143 C  
ENDBRANCH  19  20
ENDBRANCH  18  19
ENDBRANCH  17  18
ENDBRANCH  16  17
ENDBRANCH  13  16
ENDBRANCH  11  12
ENDBRANCH   9  11
ENDBRANCH   2   3
TORSDOF 8
ENDMDL
MODEL       14
REMARK 921   NORMALIZED FREE ENERGY PREDICTED BY IDOCK:   -5.79 KCAL/MOL
REMARK 922        TOTAL FREE ENERGY PREDICTED BY IDOCK:   -9.71 KCAL/MOL
REMARK 923 INTER-LIGAND FREE ENERGY PREDICTED BY IDOCK:   -8.90 KCAL/MOL
REMARK 924 INTRA-LIGAND FREE ENERGY PREDICTED BY IDOCK:   -0.81 KCAL/MOL
REMARK 927      BINDING AFFINITY PREDICTED BY RF-SCORE:    0.00 PKD
ROOT
HETATM    1  C   UNL     1     -13.660  14.266  72.408  1.00  0.00    -0.500 C  
HETATM    2  O   UNL     1     -13.728  12.843  72.515  1.00  0.00    -0.557 OA 
ENDROOT
BRANCH   2   3
HETATM    3  C   UNL     1     -13.014  12.175  71.555  1.00  0.00    -0.295 A  
HETATM    4  C   UNL     1     -13.031  10.781  71.620  1.00  0.00    -0.476 A  
HETATM    5  O   UNL     1     -13.734  10.145  72.606  1.00  0.00    -0.584 OA 
HETATM    6  C   UNL     1     -12.313  10.004  70.716  1.00  0.00    -0.396 A  
HETATM    7  C   UNL     1     -11.556  10.636  69.728  1.00  0.00    -0.385 A  
HETATM    8  H   UNL     1     -13.746   9.196  72.650  1.00  0.00     0.000 HD 
HETATM    9  C   UNL     1     -11.539  12.032  69.628  1.00  0.00    -0.371 A  
HETATM   10  C   UNL     1     -12.294  12.796  70.535  1.00  0.00    -0.355 A  
BRANCH   9  11
HETATM   11  C   UNL     1     -10.665  12.739  68.626  1.00  0.00    -0.246 C  
BRANCH  11  12
HETATM   12  N   UNL     1     -11.435  13.498  67.686  1.00  0.00    -0.300 N  
HETATM   13  C   UNL     1     -11.965  12.923  66.554  1.00  0.00    -0.377 C  
HETATM   14  H   UNL     1     -11.595  14.491  67.860  1.00  0.00     0.000 HD 
HETATM   15  O   UNL     1     -11.845  11.747  66.263  1.00  0.00    -0.501 OA 
BRANCH  13  16
HETATM   16  C   UNL     1     -12.640  13.932  65.666  1.00  0.00    -0.553 C  
BRANCH  16  17
HETATM   17  C   UNL     1     -11.767  14.400  64.509  1.00  0.00    -0.430 C  
BRANCH  17  18
HETATM   18  C   UNL     1     -11.255  15.839  64.674  1.00  0.00    -0.373 C  
BRANCH  18  19
HETATM   19  C   UNL     1     -10.059  16.019  65.619  1.00  0.00    -0.384 C  
BRANCH  19  20
HETATM   20  C   UNL     1     -10.390  16.697  66.922  1.00  0.00    -0.299 C  
HETATM   21  C   UNL     1     -10.058  17.952  67.272  1.00  0.00    -0.344 C  
HETATM   22  C   UNL     1      -9.423  18.990  66.380  1.00  0.00    -0.375 C  
HETATM   23  C   UNL     1      -7.900  18.978  66.493  1.00  0.00    -0.279 C  
HETATM   24  C   UNL     1      -9.977  20.373  66.714  1.00  0.00    -0.525 C  
ENDBRANCH  19  20
ENDBRANCH  18  19
ENDBRANCH  17  18
ENDBRANCH  16  17
ENDBRANCH  13  16
ENDBRANCH  11  12
ENDBRANCH   9  11
ENDBRANCH   2   3
TORSDOF 8
ENDMDL
MODEL       15
REMARK 921   NORMALIZED FREE ENERGY PREDICTED BY IDOCK:   -5.79 KCAL/MOL
REMARK 922        TOTAL FREE ENERGY PREDICTED BY IDOCK:   -9.71 KCAL/MOL
REMARK 923 INTER-LIGAND FREE ENERGY PREDICTED BY IDOCK:   -8.22 KCAL/MOL
REMARK 924 INTRA-LIGAND FREE ENERGY PREDICTED BY IDOCK:   -1.49 KCAL/MOL
REMARK 927      BINDING AFFINITY PREDICTED BY RF-SCORE:    0.00 PKD
ROOT
HETATM    1  C   UNL     1     -12.442  16.216  74.289  1.00  0.00    -0.555 C  
HETATM    2  O   UNL     1     -13.306  15.465  73.434  1.00  0.00    -0.466 OA 
ENDROOT
BRANCH   2   3
HETATM    3  C   UNL     1     -12.763  15.165  72.213  1.00  0.00    -0.340 A  
HETATM    4  C   UNL     1     -12.992  13.878  71.727  1.00  0.00    -0.358 A  
HETATM    5  O   UNL     1     -13.724  12.983  72.458  1.00  0.00    -0.594 OA 
HETATM    6  C   UNL     1     -12.459  13.456  70.511  1.00  0.00    -0.350 A  
HETATM    7  C   UNL     1     -11.674  14.341  69.771  1.00  0.00    -0.367 A  
HETATM    8  H   UNL     1     -13.880  12.107  72.126  1.00  0.00     0.000 HD 
HETATM    9  C   UNL     1     -11.448  15.646  70.226  1.00  0.00    -0.361 A  
HETATM   10  C   UNL     1     -12.019  16.058  71.442  1.00  0.00    -0.507 A  
BRANCH   9  11
HETATM   11  C   UNL     1     -10.538  16.591  69.488  1.00  0.00    -0.321 C  
BRANCH  11  12
HETATM   12  N   UNL     1     -10.886  16.697  68.102  1.00  0.00    -0.349 N  
HETATM   13  C   UNL     1      -9.972  16.443  67.106  1.00  0.00    -0.260 C  
HETATM   14  H   UNL     1     -11.836  16.967  67.847  1.00  0.00     0.000 HD 
HETATM   15  O   UNL     1      -8.821  16.100  67.303  1.00  0.00    -0.180 OA 
BRANCH  13  16
HETATM   16  C   UNL     1     -10.532  16.722  65.737  1.00  0.00    -0.305 C  
BRANCH  16  17
HETATM   17  C   UNL     1     -10.652  15.477  64.868  1.00  0.00    -0.370 C  
BRANCH  17  18
HETATM   18  C   UNL     1     -12.104  15.085  64.561  1.00  0.00    -0.373 C  
BRANCH  18  19
HETATM   19  C   UNL     1     -12.691  13.961  65.426  1.00  0.00    -0.525 C  
BRANCH  19  20
HETATM   20  C   UNL     1     -12.239  12.577  65.043  1.00  0.00    -0.519 C  
HETATM   21  C   UNL     1     -11.396  11.794  65.740  1.00  0.00    -0.309 C  
HETATM   22  C   UNL     1     -10.850  12.076  67.118  1.00  0.00    -0.297 C  
HETATM   23  C   UNL     1      -9.504  12.795  67.057  1.00  0.00    -0.233 C  
HETATM   24  C   UNL     1     -10.730  10.774  67.907  1.00  0.00    -0.282 C  
ENDBRANCH  19  20
ENDBRANCH  18  19
ENDBRANCH  17  18
ENDBRANCH  16  17
ENDBRANCH  13  16
ENDBRANCH  11  12
ENDBRANCH   9  11
ENDBRANCH   2   3
TORSDOF 8
ENDMDL
MODEL       16
REMARK 921   NORMALIZED FREE ENERGY PREDICTED BY IDOCK:   -5.79 KCAL/MOL
REMARK 922        TOTAL FREE ENERGY PREDICTED BY IDOCK:   -9.71 KCAL/MOL
REMARK 923 INTER-LIGAND FREE ENERGY PREDICTED BY IDOCK:   -8.83 KCAL/MOL
REMARK 924 INTRA-LIGAND FREE ENERGY PREDICTED BY IDOCK:   -0.88 KCAL/MOL
REMARK 927      BINDING AFFINITY PREDICTED BY RF-SCORE:    0.00 PKD
ROOT
HETATM    1  C   UNL     1     -12.610  14.572  65.619  1.00  0.00    -0.205 C  
HETATM    2  O   UNL     1     -12.996  13.245  65.256  1.00  0.00    -0.659 OA 
ENDROOT
BRANCH   2   3
HETATM    3  C   UNL     1     -11.963  12.345  65.245  1.00  0.00    -0.404 A  
HETATM    4  C   UNL     1     -11.474  11.970  63.994  1.00  0.00    -0.404 A  
HETATM    5  O   UNL     1     -12.022  12.490  62.854  1.00  0.00    -0.610 OA 
HETATM    6  C   UNL     1     -10.449  11.036  63.865  1.00  0.00    -0.422 A  
HETATM    7  C   UNL     1      -9.905  10.462  65.015  1.00  0.00    -0.384 A  
HETATM    8  H   UNL     1     -11.689  12.235  62.002  1.00  0.00     0.000 HD 
HETATM    9  C   UNL     1     -10.363  10.838  66.284  1.00  0.00    -0.303 A  
HETATM   10  C   UNL     1     -11.379  11.803  66.391  1.00  0.00    -0.361 A  
BRANCH   9  11
HETATM   11  C   UNL     1      -9.852  10.173  67.535  1.00  0.00    -0.177 C  
BRANCH  11  12
HETATM   12  N   UNL     1     -10.777  10.295  68.622  1.00  0.00    -0.211 N  
HETATM   13  C   UNL     1     -10.398  10.060  69.923  1.00  0.00    -0.272 C  
HETATM   14  H   UNL     1     -11.742  10.563  68.426  1.00  0.00     0.000 HD 
HETATM   15  O   UNL     1      -9.271   9.751  70.263  1.00  0.00    -0.246 OA 
BRANCH  13  16
HETATM   16  C   UNL     1     -11.559  10.144  70.877  1.00  0.00    -0.459 C  
BRANCH  16  17
HETATM   17  C   UNL     1     -12.300  11.472  70.812  1.00  0.00    -0.472 C  
BRANCH  17  18
HETATM   18  C   UNL     1     -13.403  11.608  71.873  1.00  0.00    -0.403 C  
BRANCH  18  19
HETATM   19  C   UNL     1     -13.539  12.992  72.523  1.00  0.00    -0.537 C  
BRANCH  19  20
HETATM   20  C   UNL     1     -14.017  14.075  71.593  1.00  0.00    -0.390 C  
HETATM   21  C   UNL     1     -13.339  15.186  71.252  1.00  0.00    -0.551 C  
HETATM   22  C   UNL     1     -11.907  15.503  71.605  1.00  0.00    -0.486 C  
HETATM   23  C   UNL     1     -11.809  16.316  72.894  1.00  0.00    -0.535 C  
HETATM   24  C   UNL     1     -11.237  16.242  70.449  1.00  0.00    -0.336 C  
ENDBRANCH  19  20
ENDBRANCH  18  19
ENDBRANCH  17  18
ENDBRANCH  16  17
ENDBRANCH  13  16
ENDBRANCH  11  12
ENDBRANCH   9  11
ENDBRANCH   2   3
TORSDOF 8
ENDMDL
MODEL       17
REMARK 921   NORMALIZED FREE ENERGY PREDICTED BY IDOCK:   -5.78 KCAL/MOL
REMARK 922        TOTAL FREE ENERGY PREDICTED BY IDOCK:   -9.70 KCAL/MOL
REMARK 923 INTER-LIGAND FREE ENERGY PREDICTED BY IDOCK:   -9.04 KCAL/MOL
REMARK 924 INTRA-LIGAND FREE ENERGY PREDICTED BY IDOCK:   -0.66 KCAL/MOL
REMARK 927      BINDING AFFINITY PREDICTED BY RF-SCORE:    0.00 PKD
ROOT
HETATM    1  C   UNL     1     -12.364  12.360  64.218  1.00  0.00    -0.455 C  
HETATM    2  O   UNL     1     -12.400  13.784  64.109  1.00  0.00    -0.604 OA 
ENDROOT
BRANCH   2   3
HETATM    3  C   UNL     1     -11.652  14.437  65.053  1.00  0.00    -0.374 A  
HETATM    4  C   UNL     1     -11.333  15.769  64.787  1.00  0.00    -0.314 A  
HETATM    5  O   UNL     1     -11.759  16.363  63.631  1.00  0.00    -1.520 OA 
HETATM    6  C   UNL     1     -10.549  16.516  65.662  1.00  0.00    -0.317 A  
HETATM    7  C   UNL     1     -10.070  15.915  66.826  1.00  0.00    -0.276 A  
HETATM    8  H   UNL     1     -11.542  17.270  63.450  1.00  0.00     0.000 HD 
HETATM    9  C   UNL     1     -10.394  14.586  67.128  1.00  0.00    -0.265 A  
HETATM   10  C   UNL     1     -11.209  13.860  66.243  1.00  0.00    -0.310 A  
BRANCH   9  11
HETATM   11  C   UNL     1      -9.821  13.890  68.334  1.00  0.00    -0.229 C  
BRANCH  11  12
HETATM   12  N   UNL     1     -10.845  13.330  69.165  1.00  0.00    -0.423 N  
HETATM   13  C   UNL     1     -11.600  14.113  70.007  1.00  0.00    -0.248 C  
HETATM   14  H   UNL     1     -11.018  12.326  69.132  1.00  0.00     0.000 HD 
HETATM   15  O   UNL     1     -11.483  15.320  70.109  1.00  0.00    -0.249 OA 
BRANCH  13  16
HETATM   16  C   UNL     1     -12.535  13.296  70.857  1.00  0.00    -0.424 C  
BRANCH  16  17
HETATM   17  C   UNL     1     -12.275  11.798  70.773  1.00  0.00    -0.424 C  
BRANCH  17  18
HETATM   18  C   UNL     1     -13.049  10.984  71.821  1.00  0.00    -0.554 C  
BRANCH  18  19
HETATM   19  C   UNL     1     -12.885   9.461  71.740  1.00  0.00    -0.484 C  
BRANCH  19  20
HETATM   20  C   UNL     1     -11.764   8.999  70.848  1.00  0.00    -0.327 C  
HETATM   21  C   UNL     1     -10.975   7.929  71.051  1.00  0.00    -0.262 C  
HETATM   22  C   UNL     1     -11.145   6.885  72.127  1.00  0.00    -0.277 C  
HETATM   23  C   UNL     1     -10.336   7.224  73.377  1.00  0.00    -0.410 C  
HETATM   24  C   UNL     1     -10.753   5.512  71.587  1.00  0.00    -0.296 C  
ENDBRANCH  19  20
ENDBRANCH  18  19
ENDBRANCH  17  18
ENDBRANCH  16  17
ENDBRANCH  13  16
ENDBRANCH  11  12
ENDBRANCH   9  11
ENDBRANCH   2   3
TORSDOF 8
ENDMDL
MODEL       18
REMARK 921   NORMALIZED FREE ENERGY PREDICTED BY IDOCK:   -5.78 KCAL/MOL
REMARK 922        TOTAL FREE ENERGY PREDICTED BY IDOCK:   -9.70 KCAL/MOL
REMARK 923 INTER-LIGAND FREE ENERGY PREDICTED BY IDOCK:   -8.25 KCAL/MOL
REMARK 924 INTRA-LIGAND FREE ENERGY PREDICTED BY IDOCK:   -1.45 KCAL/MOL
REMARK 927      BINDING AFFINITY PREDICTED BY RF-SCORE:    0.00 PKD
ROOT
HETATM    1  C   UNL     1     -12.734  12.484  64.161  1.00  0.00    -0.322 C  
HETATM    2  O   UNL     1     -12.562  13.543  65.105  1.00  0.00    -0.514 OA 
ENDROOT
BRANCH   2   3
HETATM    3  C   UNL     1     -11.722  13.237  66.143  1.00  0.00    -0.374 A  
HETATM    4  C   UNL     1     -10.361  13.460  65.933  1.00  0.00    -0.290 A  
HETATM    5  O   UNL     1      -9.919  13.959  64.739  1.00  0.00    -0.609 OA 
HETATM    6  C   UNL     1      -9.417  13.153  66.909  1.00  0.00    -0.244 A  
HETATM    7  C   UNL     1      -9.844  12.604  68.119  1.00  0.00    -0.226 A  
HETATM    8  H   UNL     1      -8.993  14.111  64.596  1.00  0.00     0.000 HD 
HETATM    9  C   UNL     1     -11.207  12.391  68.363  1.00  0.00    -0.316 A  
HETATM   10  C   UNL     1     -12.144  12.735  67.374  1.00  0.00    -0.222 A  
BRANCH   9  11
HETATM   11  C   UNL     1     -11.686  11.723  69.625  1.00  0.00    -0.344 C  
BRANCH  11  12
HETATM   12  N   UNL     1     -12.197  12.671  70.571  1.00  0.00    -0.411 N  
HETATM   13  C   UNL     1     -13.002  12.285  71.616  1.00  0.00    -0.311 C  
HETATM   14  H   UNL     1     -11.957  13.656  70.466  1.00  0.00     0.000 HD 
HETATM   15  O   UNL     1     -13.334  11.135  71.837  1.00  0.00    -0.417 OA 
BRANCH  13  16
HETATM   16  C   UNL     1     -13.503  13.460  72.412  1.00  0.00    -0.685 C  
BRANCH  16  17
HETATM   17  C   UNL     1     -12.420  14.482  72.727  1.00  0.00    -0.331 C  
BRANCH  17  18
HETATM   18  C   UNL     1     -12.593  15.808  71.972  1.00  0.00    -0.524 C  
BRANCH  18  19
HETATM   19  C   UNL     1     -11.481  16.161  70.976  1.00  0.00    -0.424 C  
BRANCH  19  20
HETATM   20  C   UNL     1     -11.785  15.802  69.545  1.00  0.00    -0.369 C  
HETATM   21  C   UNL     1     -11.157  16.278  68.455  1.00  0.00    -0.368 C  
HETATM   22  C   UNL     1      -9.925  17.148  68.443  1.00  0.00    -0.310 C  
HETATM   23  C   UNL     1     -10.281  18.633  68.400  1.00  0.00    -0.415 C  
HETATM   24  C   UNL     1      -9.035  16.773  67.260  1.00  0.00    -0.222 C  
ENDBRANCH  19  20
ENDBRANCH  18  19
ENDBRANCH  17  18
ENDBRANCH  16  17
ENDBRANCH  13  16
ENDBRANCH  11  12
ENDBRANCH   9  11
ENDBRANCH   2   3
TORSDOF 8
ENDMDL
MODEL       19
REMARK 921   NORMALIZED FREE ENERGY PREDICTED BY IDOCK:   -5.77 KCAL/MOL
REMARK 922        TOTAL FREE ENERGY PREDICTED BY IDOCK:   -9.68 KCAL/MOL
REMARK 923 INTER-LIGAND FREE ENERGY PREDICTED BY IDOCK:   -8.55 KCAL/MOL
REMARK 924 INTRA-LIGAND FREE ENERGY PREDICTED BY IDOCK:   -1.13 KCAL/MOL
REMARK 927      BINDING AFFINITY PREDICTED BY RF-SCORE:    0.00 PKD
ROOT
HETATM    1  C   UNL     1     -11.711  16.177  71.449  1.00  0.00    -0.444 C  
HETATM    2  O   UNL     1     -12.832  15.486  70.893  1.00  0.00    -0.448 OA 
ENDROOT
BRANCH   2   3
HETATM    3  C   UNL     1     -12.650  14.134  70.768  1.00  0.00    -0.362 A  
HETATM    4  C   UNL     1     -13.198  13.334  71.771  1.00  0.00    -0.405 A  
HETATM    5  O   UNL     1     -13.874  13.902  72.815  1.00  0.00    -0.701 OA 
HETATM    6  C   UNL     1     -13.044  11.950  71.760  1.00  0.00    -0.465 A  
HETATM    7  C   UNL     1     -12.321  11.355  70.726  1.00  0.00    -0.483 A  
HETATM    8  H   UNL     1     -14.248  13.357  73.497  1.00  0.00     0.000 HD 
HETATM    9  C   UNL     1     -11.780  12.133  69.695  1.00  0.00    -0.396 A  
HETATM   10  C   UNL     1     -11.971  13.526  69.712  1.00  0.00    -0.405 A  
BRANCH   9  11
HETATM   11  C   UNL     1     -10.925  11.526  68.614  1.00  0.00    -0.223 C  
BRANCH  11  12
HETATM   12  N   UNL     1     -11.411  11.846  67.305  1.00  0.00    -0.321 N  
HETATM   13  C   UNL     1     -10.837  11.316  66.173  1.00  0.00    -0.222 C  
HETATM   14  H   UNL     1     -12.202  12.482  67.210  1.00  0.00     0.000 HD 
HETATM   15  O   UNL     1      -9.901  10.538  66.178  1.00  0.00    -0.199 OA 
BRANCH  13  16
HETATM   16  C   UNL     1     -11.443  11.876  64.914  1.00  0.00    -0.315 C  
BRANCH  16  17
HETATM   17  C   UNL     1     -12.415  13.019  65.167  1.00  0.00    -0.552 C  
BRANCH  17  18
HETATM   18  C   UNL     1     -12.052  14.308  64.415  1.00  0.00    -0.490 C  
BRANCH  18  19
HETATM   19  C   UNL     1     -10.919  15.143  65.027  1.00  0.00    -0.443 C  
BRANCH  19  20
HETATM   20  C   UNL     1     -10.944  15.224  66.530  1.00  0.00    -0.295 C  
HETATM   21  C   UNL     1     -10.504  16.252  67.278  1.00  0.00    -0.300 C  
HETATM   22  C   UNL     1     -10.037  17.593  66.768  1.00  0.00    -0.334 C  
HETATM   23  C   UNL     1      -8.526  17.620  66.549  1.00  0.00    -0.294 C  
HETATM   24  C   UNL     1     -10.461  18.695  67.736  1.00  0.00    -0.457 C  
ENDBRANCH  19  20
ENDBRANCH  18  19
ENDBRANCH  17  18
ENDBRANCH  16  17
ENDBRANCH  13  16
ENDBRANCH  11  12
ENDBRANCH   9  11
ENDBRANCH   2   3
TORSDOF 8
ENDMDL
MODEL       20
REMARK 921   NORMALIZED FREE ENERGY PREDICTED BY IDOCK:   -5.76 KCAL/MOL
REMARK 922        TOTAL FREE ENERGY PREDICTED BY IDOCK:   -9.66 KCAL/MOL
REMARK 923 INTER-LIGAND FREE ENERGY PREDICTED BY IDOCK:   -8.66 KCAL/MOL
REMARK 924 INTRA-LIGAND FREE ENERGY PREDICTED BY IDOCK:   -1.00 KCAL/MOL
REMARK 927      BINDING AFFINITY PREDICTED BY RF-SCORE:    0.00 PKD
ROOT
HETATM    1  C   UNL     1     -10.813   6.961  72.487  1.00  0.00    -0.244 C  
HETATM    2  O   UNL     1     -12.104   7.377  72.040  1.00  0.00    -0.291 OA 
ENDROOT
BRANCH   2   3
HETATM    3  C   UNL     1     -12.168   8.692  71.660  1.00  0.00    -0.333 A  
HETATM    4  C   UNL     1     -13.145   9.474  72.276  1.00  0.00    -0.408 A  
HETATM    5  O   UNL     1     -13.983   8.925  73.207  1.00  0.00    -1.203 OA 
HETATM    6  C   UNL     1     -13.321  10.814  71.940  1.00  0.00    -0.445 A  
HETATM    7  C   UNL     1     -12.503  11.381  70.961  1.00  0.00    -0.486 A  
HETATM    8  H   UNL     1     -14.648   9.458  73.627  1.00  0.00     0.000 HD 
HETATM    9  C   UNL     1     -11.500  10.624  70.344  1.00  0.00    -0.422 A  
HETATM   10  C   UNL     1     -11.324   9.281  70.719  1.00  0.00    -0.349 A  
BRANCH   9  11
HETATM   11  C   UNL     1     -10.662  11.188  69.227  1.00  0.00    -0.199 C  
BRANCH  11  12
HETATM   12  N   UNL     1     -11.253  12.361  68.654  1.00  0.00    -0.250 N  
HETATM   13  C   UNL     1     -11.761  12.364  67.377  1.00  0.00    -0.347 C  
HETATM   14  H   UNL     1     -11.298  13.216  69.209  1.00  0.00     0.000 HD 
HETATM   15  O   UNL     1     -11.769  11.394  66.640  1.00  0.00    -0.434 OA 
BRANCH  13  16
HETATM   16  C   UNL     1     -12.230  13.730  66.954  1.00  0.00    -0.408 C  
BRANCH  16  17
HETATM   17  C   UNL     1     -12.304  13.903  65.443  1.00  0.00    -0.494 C  
BRANCH  17  18
HETATM   18  C   UNL     1     -10.947  14.216  64.797  1.00  0.00    -0.409 C  
BRANCH  18  19
HETATM   19  C   UNL     1     -10.288  15.533  65.227  1.00  0.00    -0.416 C  
BRANCH  19  20
HETATM   20  C   UNL     1      -9.178  15.379  66.232  1.00  0.00    -0.354 C  
HETATM   21  C   UNL     1      -9.201  15.794  67.511  1.00  0.00    -0.207 C  
HETATM   22  C   UNL     1     -10.391  16.360  68.246  1.00  0.00    -0.279 C  
HETATM   23  C   UNL     1     -10.433  17.884  68.165  1.00  0.00    -0.380 C  
HETATM   24  C   UNL     1     -10.372  15.898  69.702  1.00  0.00    -0.299 C  
ENDBRANCH  19  20
ENDBRANCH  18  19
ENDBRANCH  17  18
ENDBRANCH  16  17
ENDBRANCH  13  16
ENDBRANCH  11  12
ENDBRANCH   9  11
ENDBRANCH   2   3
TORSDOF 8
ENDMDL
MODEL       21
REMARK 921   NORMALIZED FREE ENERGY PREDICTED BY IDOCK:   -5.75 KCAL/MOL
REMARK 922        TOTAL FREE ENERGY PREDICTED BY IDOCK:   -9.65 KCAL/MOL
REMARK 923 INTER-LIGAND FREE ENERGY PREDICTED BY IDOCK:   -8.68 KCAL/MOL
REMARK 924 INTRA-LIGAND FREE ENERGY PREDICTED BY IDOCK:   -0.97 KCAL/MOL
REMARK 927      BINDING AFFINITY PREDICTED BY RF-SCORE:    0.00 PKD
ROOT
HETATM    1  C   UNL     1     -12.527  12.625  63.462  1.00  0.00    -0.418 C  
HETATM    2  O   UNL     1     -12.626  14.028  63.715  1.00  0.00    -0.772 OA 
ENDROOT
BRANCH   2   3
HETATM    3  C   UNL     1     -11.975  14.439  64.848  1.00  0.00    -0.426 A  
HETATM    4  C   UNL     1     -11.441  15.728  64.830  1.00  0.00    -0.255 A  
HETATM    5  O   UNL     1     -11.576  16.515  63.719  1.00  0.00    -1.617 OA 
HETATM    6  C   UNL     1     -10.731  16.235  65.915  1.00  0.00    -0.235 A  
HETATM    7  C   UNL     1     -10.547  15.432  67.041  1.00  0.00    -0.309 A  
HETATM    8  H   UNL     1     -11.213  17.393  63.707  1.00  0.00     0.000 HD 
HETATM    9  C   UNL     1     -11.091  14.142  67.094  1.00  0.00    -0.315 A  
HETATM   10  C   UNL     1     -11.828  13.662  65.997  1.00  0.00    -0.415 A  
BRANCH   9  11
HETATM   11  C   UNL     1     -10.835  13.226  68.261  1.00  0.00    -0.256 C  
BRANCH  11  12
HETATM   12  N   UNL     1     -10.062  12.081  67.882  1.00  0.00    -0.190 N  
HETATM   13  C   UNL     1     -10.636  10.841  67.726  1.00  0.00    -0.228 C  
HETATM   14  H   UNL     1      -9.060  12.188  67.725  1.00  0.00     0.000 HD 
HETATM   15  O   UNL     1     -11.822  10.611  67.875  1.00  0.00    -0.485 OA 
BRANCH  13  16
HETATM   16  C   UNL     1      -9.615   9.775  67.433  1.00  0.00    -0.187 C  
BRANCH  16  17
HETATM   17  C   UNL     1     -10.208   8.533  66.781  1.00  0.00    -0.370 C  
BRANCH  17  18
HETATM   18  C   UNL     1      -9.882   7.234  67.533  1.00  0.00    -0.198 C  
BRANCH  18  19
HETATM   19  C   UNL     1     -11.084   6.478  68.114  1.00  0.00    -0.332 C  
BRANCH  19  20
HETATM   20  C   UNL     1     -10.836   5.849  69.459  1.00  0.00    -0.442 C  
HETATM   21  C   UNL     1     -11.027   6.430  70.657  1.00  0.00    -0.355 C  
HETATM   22  C   UNL     1     -11.672   7.772  70.906  1.00  0.00    -0.281 C  
HETATM   23  C   UNL     1     -10.637   8.893  70.969  1.00  0.00    -0.315 C  
HETATM   24  C   UNL     1     -12.494   7.724  72.191  1.00  0.00    -0.277 C  
ENDBRANCH  19  20
ENDBRANCH  18  19
ENDBRANCH  17  18
ENDBRANCH  16  17
ENDBRANCH  13  16
ENDBRANCH  11  12
ENDBRANCH   9  11
ENDBRANCH   2   3
TORSDOF 8
ENDMDL
MODEL       22
REMARK 921   NORMALIZED FREE ENERGY PREDICTED BY IDOCK:   -5.74 KCAL/MOL
REMARK 922        TOTAL FREE ENERGY PREDICTED BY IDOCK:   -9.64 KCAL/MOL
REMARK 923 INTER-LIGAND FREE ENERGY PREDICTED BY IDOCK:   -8.82 KCAL/MOL
REMARK 924 INTRA-LIGAND FREE ENERGY PREDICTED BY IDOCK:   -0.82 KCAL/MOL
REMARK 927      BINDING AFFINITY PREDICTED BY RF-SCORE:    0.00 PKD
ROOT
HETATM    1  C   UNL     1     -10.504  17.087  65.664  1.00  0.00    -0.216 C  
HETATM    2  O   UNL     1     -10.623  16.017  64.725  1.00  0.00    -0.600 OA 
ENDROOT
BRANCH   2   3
HETATM    3  C   UNL     1     -10.956  14.813  65.288  1.00  0.00    -0.374 A  
HETATM    4  C   UNL     1     -11.957  14.081  64.651  1.00  0.00    -0.430 A  
HETATM    5  O   UNL     1     -12.559  14.569  63.524  1.00  0.00    -1.034 OA 
HETATM    6  C   UNL     1     -12.397  12.860  65.156  1.00  0.00    -0.547 A  
HETATM    7  C   UNL     1     -11.824  12.364  66.328  1.00  0.00    -0.431 A  
HETATM    8  H   UNL     1     -13.241  14.070  63.090  1.00  0.00     0.000 HD 
HETATM    9  C   UNL     1     -10.802  13.069  66.975  1.00  0.00    -0.278 A  
HETATM   10  C   UNL     1     -10.355  14.286  66.431  1.00  0.00    -0.287 A  
BRANCH   9  11
HETATM   11  C   UNL     1     -10.227  12.599  68.285  1.00  0.00    -0.239 C  
BRANCH  11  12
HETATM   12  N   UNL     1     -11.251  12.275  69.233  1.00  0.00    -0.375 N  
HETATM   13  C   UNL     1     -11.373  11.011  69.761  1.00  0.00    -0.292 C  
HETATM   14  H   UNL     1     -11.907  13.000  69.524  1.00  0.00     0.000 HD 
HETATM   15  O   UNL     1     -10.635  10.081  69.491  1.00  0.00    -0.211 OA 
BRANCH  13  16
HETATM   16  C   UNL     1     -12.581  10.879  70.649  1.00  0.00    -0.435 C  
BRANCH  16  17
HETATM   17  C   UNL     1     -12.467   9.747  71.660  1.00  0.00    -0.500 C  
BRANCH  17  18
HETATM   18  C   UNL     1     -13.724   8.867  71.735  1.00  0.00    -0.471 C  
BRANCH  18  19
HETATM   19  C   UNL     1     -13.484   7.352  71.691  1.00  0.00    -0.437 C  
BRANCH  19  20
HETATM   20  C   UNL     1     -12.260   6.935  70.920  1.00  0.00    -0.404 C  
HETATM   21  C   UNL     1     -11.216   6.237  71.402  1.00  0.00    -0.349 C  
HETATM   22  C   UNL     1     -11.122   5.597  72.765  1.00  0.00    -0.334 C  
HETATM   23  C   UNL     1     -10.463   6.526  73.782  1.00  0.00    -0.335 C  
HETATM   24  C   UNL     1     -10.362   4.276  72.669  1.00  0.00    -0.243 C  
ENDBRANCH  19  20
ENDBRANCH  18  19
ENDBRANCH  17  18
ENDBRANCH  16  17
ENDBRANCH  13  16
ENDBRANCH  11  12
ENDBRANCH   9  11
ENDBRANCH   2   3
TORSDOF 8
ENDMDL
MODEL       23
REMARK 921   NORMALIZED FREE ENERGY PREDICTED BY IDOCK:   -5.74 KCAL/MOL
REMARK 922        TOTAL FREE ENERGY PREDICTED BY IDOCK:   -9.63 KCAL/MOL
REMARK 923 INTER-LIGAND FREE ENERGY PREDICTED BY IDOCK:   -8.49 KCAL/MOL
REMARK 924 INTRA-LIGAND FREE ENERGY PREDICTED BY IDOCK:   -1.14 KCAL/MOL
REMARK 927      BINDING AFFINITY PREDICTED BY RF-SCORE:    0.00 PKD
ROOT
HETATM    1  C   UNL     1     -12.975  15.734  73.627  1.00  0.00    -0.549 C  
HETATM    2  O   UNL     1     -13.805  15.319  72.540  1.00  0.00    -0.476 OA 
ENDROOT
BRANCH   2   3
HETATM    3  C   UNL     1     -13.228  14.387  71.719  1.00  0.00    -0.358 A  
HETATM    4  C   UNL     1     -12.670  14.859  70.532  1.00  0.00    -0.347 A  
HETATM    5  O   UNL     1     -12.714  16.192  70.230  1.00  0.00    -0.523 OA 
HETATM    6  C   UNL     1     -12.088  13.994  69.609  1.00  0.00    -0.408 A  
HETATM    7  C   UNL     1     -12.070  12.625  69.879  1.00  0.00    -0.322 A  
HETATM    8  H   UNL     1     -12.333  16.514  69.422  1.00  0.00     0.000 HD 
HETATM    9  C   UNL     1     -12.604  12.127  71.074  1.00  0.00    -0.359 A  
HETATM   10  C   UNL     1     -13.162  13.022  72.003  1.00  0.00    -0.543 A  
BRANCH   9  11
HETATM   11  C   UNL     1     -12.673  10.649  71.351  1.00  0.00    -0.440 C  
BRANCH  11  12
HETATM   12  N   UNL     1     -12.113   9.877  70.281  1.00  0.00    -0.464 N  
HETATM   13  C   UNL     1     -10.950   9.162  70.438  1.00  0.00    -0.248 C  
HETATM   14  H   UNL     1     -12.590   9.859  69.379  1.00  0.00     0.000 HD 
HETATM   15  O   UNL     1     -10.314   9.106  71.475  1.00  0.00    -0.320 OA 
BRANCH  13  16
HETATM   16  C   UNL     1     -10.499   8.519  69.154  1.00  0.00    -0.217 C  
BRANCH  16  17
HETATM   17  C   UNL     1     -10.896   9.306  67.913  1.00  0.00    -0.181 C  
BRANCH  17  18
HETATM   18  C   UNL     1      -9.967   9.066  66.714  1.00  0.00    -0.332 C  
BRANCH  18  19
HETATM   19  C   UNL     1     -10.191   9.978  65.500  1.00  0.00    -0.248 C  
BRANCH  19  20
HETATM   20  C   UNL     1      -9.663  11.378  65.665  1.00  0.00    -0.263 C  
HETATM   21  C   UNL     1     -10.345  12.516  65.445  1.00  0.00    -0.305 C  
HETATM   22  C   UNL     1     -11.818  12.629  65.140  1.00  0.00    -0.437 C  
HETATM   23  C   UNL     1     -12.084  12.645  63.636  1.00  0.00    -0.632 C  
HETATM   24  C   UNL     1     -12.394  13.879  65.802  1.00  0.00    -0.518 C  
ENDBRANCH  19  20
ENDBRANCH  18  19
ENDBRANCH  17  18
ENDBRANCH  16  17
ENDBRANCH  13  16
ENDBRANCH  11  12
ENDBRANCH   9  11
ENDBRANCH   2   3
TORSDOF 8
ENDMDL
MODEL       24
REMARK 921   NORMALIZED FREE ENERGY PREDICTED BY IDOCK:   -5.73 KCAL/MOL
REMARK 922        TOTAL FREE ENERGY PREDICTED BY IDOCK:   -9.63 KCAL/MOL
REMARK 923 INTER-LIGAND FREE ENERGY PREDICTED BY IDOCK:   -8.69 KCAL/MOL
REMARK 924 INTRA-LIGAND FREE ENERGY PREDICTED BY IDOCK:   -0.94 KCAL/MOL
REMARK 927      BINDING AFFINITY PREDICTED BY RF-SCORE:    0.00 PKD
ROOT
HETATM    1  C   UNL     1     -10.620  17.391  65.354  1.00  0.00    -0.034 C  
HETATM    2  O   UNL     1     -10.926  16.232  64.577  1.00  0.00    -0.687 OA 
ENDROOT
BRANCH   2   3
HETATM    3  C   UNL     1     -11.192  15.113  65.321  1.00  0.00    -0.358 A  
HETATM    4  C   UNL     1     -12.011  14.150  64.732  1.00  0.00    -0.431 A  
HETATM    5  O   UNL     1     -12.511  14.345  63.473  1.00  0.00    -1.102 OA 
HETATM    6  C   UNL     1     -12.373  12.990  65.412  1.00  0.00    -0.538 A  
HETATM    7  C   UNL     1     -11.908  12.792  66.712  1.00  0.00    -0.452 A  
HETATM    8  H   UNL     1     -13.068  13.690  63.072  1.00  0.00     0.000 HD 
HETATM    9  C   UNL     1     -11.066  13.733  67.319  1.00  0.00    -0.319 A  
HETATM   10  C   UNL     1     -10.692  14.883  66.603  1.00  0.00    -0.312 A  
BRANCH   9  11
HETATM   11  C   UNL     1     -10.620  13.584  68.749  1.00  0.00    -0.218 C  
BRANCH  11  12
HETATM   12  N   UNL     1     -11.500  12.739  69.499  1.00  0.00    -0.426 N  
HETATM   13  C   UNL     1     -12.264  13.227  70.533  1.00  0.00    -0.340 C  
HETATM   14  H   UNL     1     -11.562  11.749  69.261  1.00  0.00     0.000 HD 
HETATM   15  O   UNL     1     -12.275  14.392  70.886  1.00  0.00    -0.301 OA 
BRANCH  13  16
HETATM   16  C   UNL     1     -13.027  12.140  71.240  1.00  0.00    -0.303 C  
BRANCH  16  17
HETATM   17  C   UNL     1     -12.590  10.737  70.840  1.00  0.00    -0.498 C  
BRANCH  17  18
HETATM   18  C   UNL     1     -13.337   9.626  71.593  1.00  0.00    -0.485 C  
BRANCH  18  19
HETATM   19  C   UNL     1     -12.467   8.486  72.139  1.00  0.00    -0.437 C  
BRANCH  19  20
HETATM   20  C   UNL     1     -12.531   7.213  71.339  1.00  0.00    -0.427 C  
HETATM   21  C   UNL     1     -11.626   6.795  70.435  1.00  0.00    -0.422 C  
HETATM   22  C   UNL     1     -10.290   7.435  70.148  1.00  0.00    -0.219 C  
HETATM   23  C   UNL     1     -10.380   8.444  69.006  1.00  0.00    -0.231 C  
HETATM   24  C   UNL     1      -9.253   6.358  69.836  1.00  0.00    -0.154 C  
ENDBRANCH  19  20
ENDBRANCH  18  19
ENDBRANCH  17  18
ENDBRANCH  16  17
ENDBRANCH  13  16
ENDBRANCH  11  12
ENDBRANCH   9  11
ENDBRANCH   2   3
TORSDOF 8
ENDMDL
MODEL       25
REMARK 921   NORMALIZED FREE ENERGY PREDICTED BY IDOCK:   -5.72 KCAL/MOL
REMARK 922        TOTAL FREE ENERGY PREDICTED BY IDOCK:   -9.62 KCAL/MOL
REMARK 923 INTER-LIGAND FREE ENERGY PREDICTED BY IDOCK:   -8.42 KCAL/MOL
REMARK 924 INTRA-LIGAND FREE ENERGY PREDICTED BY IDOCK:   -1.20 KCAL/MOL
REMARK 927      BINDING AFFINITY PREDICTED BY RF-SCORE:    0.00 PKD
ROOT
HETATM    1  C   UNL     1     -11.751   6.565  70.787  1.00  0.00    -0.366 C  
HETATM    2  O   UNL     1     -11.850   7.470  71.887  1.00  0.00    -0.278 OA 
ENDROOT
BRANCH   2   3
HETATM    3  C   UNL     1     -12.057   8.774  71.523  1.00  0.00    -0.329 A  
HETATM    4  C   UNL     1     -13.046   9.469  72.220  1.00  0.00    -0.408 A  
HETATM    5  O   UNL     1     -13.757   8.850  73.211  1.00  0.00    -1.085 OA 
HETATM    6  C   UNL     1     -13.362  10.789  71.909  1.00  0.00    -0.445 A  
HETATM    7  C   UNL     1     -12.677  11.425  70.873  1.00  0.00    -0.397 A  
HETATM    8  H   UNL     1     -14.430   9.323  73.686  1.00  0.00     0.000 HD 
HETATM    9  C   UNL     1     -11.665  10.757  70.172  1.00  0.00    -0.425 A  
HETATM   10  C   UNL     1     -11.344   9.434  70.522  1.00  0.00    -0.328 A  
BRANCH   9  11
HETATM   11  C   UNL     1     -10.970  11.392  68.997  1.00  0.00    -0.236 C  
BRANCH  11  12
HETATM   12  N   UNL     1     -10.882  12.815  69.132  1.00  0.00    -0.427 N  
HETATM   13  C   UNL     1      -9.887  13.539  68.517  1.00  0.00    -0.189 C  
HETATM   14  H   UNL     1     -11.574  13.305  69.698  1.00  0.00     0.000 HD 
HETATM   15  O   UNL     1      -9.023  13.053  67.810  1.00  0.00    -0.171 OA 
BRANCH  13  16
HETATM   16  C   UNL     1      -9.932  14.997  68.888  1.00  0.00    -0.236 C  
BRANCH  16  17
HETATM   17  C   UNL     1     -11.009  15.776  68.145  1.00  0.00    -0.330 C  
BRANCH  17  18
HETATM   18  C   UNL     1     -10.445  16.821  67.171  1.00  0.00    -0.299 C  
BRANCH  18  19
HETATM   19  C   UNL     1     -10.615  16.505  65.679  1.00  0.00    -0.317 C  
BRANCH  19  20
HETATM   20  C   UNL     1      -9.869  15.285  65.209  1.00  0.00    -0.250 C  
HETATM   21  C   UNL     1     -10.415  14.120  64.817  1.00  0.00    -0.432 C  
HETATM   22  C   UNL     1     -11.886  13.844  64.622  1.00  0.00    -0.428 C  
HETATM   23  C   UNL     1     -12.525  13.266  65.883  1.00  0.00    -0.433 C  
HETATM   24  C   UNL     1     -12.087  12.903  63.436  1.00  0.00    -0.610 C  
ENDBRANCH  19  20
ENDBRANCH  18  19
ENDBRANCH  17  18
ENDBRANCH  16  17
ENDBRANCH  13  16
ENDBRANCH  11  12
ENDBRANCH   9  11
ENDBRANCH   2   3
TORSDOF 8
ENDMDL
MODEL       26
REMARK 921   NORMALIZED FREE ENERGY PREDICTED BY IDOCK:   -5.70 KCAL/MOL
REMARK 922        TOTAL FREE ENERGY PREDICTED BY IDOCK:   -9.59 KCAL/MOL
REMARK 923 INTER-LIGAND FREE ENERGY PREDICTED BY IDOCK:   -8.78 KCAL/MOL
REMARK 924 INTRA-LIGAND FREE ENERGY PREDICTED BY IDOCK:   -0.80 KCAL/MOL
REMARK 927      BINDING AFFINITY PREDICTED BY RF-SCORE:    0.00 PKD
ROOT
HETATM    1  C   UNL     1     -10.255  18.785  66.672  1.00  0.00    -0.408 C  
HETATM    2  O   UNL     1     -10.591  17.981  65.541  1.00  0.00    -0.639 OA 
ENDROOT
BRANCH   2   3
HETATM    3  C   UNL     1     -10.631  16.636  65.802  1.00  0.00    -0.268 A  
HETATM    4  C   UNL     1     -11.179  15.823  64.809  1.00  0.00    -0.366 A  
HETATM    5  O   UNL     1     -11.645  16.371  63.647  1.00  0.00    -1.514 OA 
HETATM    6  C   UNL     1     -11.299  14.447  64.984  1.00  0.00    -0.373 A  
HETATM    7  C   UNL     1     -10.868  13.874  66.181  1.00  0.00    -0.290 A  
HETATM    8  H   UNL     1     -12.018  15.818  62.971  1.00  0.00     0.000 HD 
HETATM    9  C   UNL     1     -10.294  14.665  67.184  1.00  0.00    -0.265 A  
HETATM   10  C   UNL     1     -10.157  16.048  66.974  1.00  0.00    -0.271 A  
BRANCH   9  11
HETATM   11  C   UNL     1      -9.898  14.084  68.515  1.00  0.00    -0.225 C  
BRANCH  11  12
HETATM   12  N   UNL     1     -10.870  13.152  69.003  1.00  0.00    -0.394 N  
HETATM   13  C   UNL     1     -10.750  11.800  68.782  1.00  0.00    -0.221 C  
HETATM   14  H   UNL     1     -11.673  13.500  69.528  1.00  0.00     0.000 HD 
HETATM   15  O   UNL     1      -9.825  11.284  68.182  1.00  0.00    -0.172 OA 
BRANCH  13  16
HETATM   16  C   UNL     1     -11.939  11.032  69.292  1.00  0.00    -0.410 C  
BRANCH  16  17
HETATM   17  C   UNL     1     -12.049  11.027  70.811  1.00  0.00    -0.467 C  
BRANCH  17  18
HETATM   18  C   UNL     1     -13.275  10.261  71.332  1.00  0.00    -0.464 C  
BRANCH  18  19
HETATM   19  C   UNL     1     -12.976   9.053  72.230  1.00  0.00    -0.490 C  
BRANCH  19  20
HETATM   20  C   UNL     1     -13.255   7.717  71.595  1.00  0.00    -0.381 C  
HETATM   21  C   UNL     1     -12.342   6.881  71.069  1.00  0.00    -0.401 C  
HETATM   22  C   UNL     1     -10.843   7.035  71.142  1.00  0.00    -0.263 C  
HETATM   23  C   UNL     1     -10.290   7.772  69.924  1.00  0.00    -0.223 C  
HETATM   24  C   UNL     1     -10.185   5.665  71.287  1.00  0.00    -0.279 C  
ENDBRANCH  19  20
ENDBRANCH  18  19
ENDBRANCH  17  18
ENDBRANCH  16  17
ENDBRANCH  13  16
ENDBRANCH  11  12
ENDBRANCH   9  11
ENDBRANCH   2   3
TORSDOF 8
ENDMDL
MODEL       27
REMARK 921   NORMALIZED FREE ENERGY PREDICTED BY IDOCK:   -5.70 KCAL/MOL
REMARK 922        TOTAL FREE ENERGY PREDICTED BY IDOCK:   -9.58 KCAL/MOL
REMARK 923 INTER-LIGAND FREE ENERGY PREDICTED BY IDOCK:   -8.40 KCAL/MOL
REMARK 924 INTRA-LIGAND FREE ENERGY PREDICTED BY IDOCK:   -1.18 KCAL/MOL
REMARK 927      BINDING AFFINITY PREDICTED BY RF-SCORE:    0.00 PKD
ROOT
HETATM    1  C   UNL     1      -7.192  15.556  69.078  1.00  0.00    -0.156 C  
HETATM    2  O   UNL     1      -7.653  16.888  69.308  1.00  0.00    -0.212 OA 
ENDROOT
BRANCH   2   3
HETATM    3  C   UNL     1      -8.466  17.377  68.319  1.00  0.00    -0.249 A  
HETATM    4  C   UNL     1      -8.629  18.762  68.272  1.00  0.00    -0.327 A  
HETATM    5  O   UNL     1      -7.998  19.563  69.184  1.00  0.00    -0.336 OA 
HETATM    6  C   UNL     1      -9.460  19.363  67.330  1.00  0.00    -0.398 A  
HETATM    7  C   UNL     1     -10.145  18.560  66.418  1.00  0.00    -0.430 A  
HETATM    8  H   UNL     1      -8.109  20.506  69.152  1.00  0.00     0.000 HD 
HETATM    9  C   UNL     1      -9.981  17.169  66.429  1.00  0.00    -0.315 A  
HETATM   10  C   UNL     1      -9.117  16.587  67.372  1.00  0.00    -0.210 A  
BRANCH   9  11
HETATM   11  C   UNL     1     -10.773  16.275  65.512  1.00  0.00    -0.313 C  
BRANCH  11  12
HETATM   12  N   UNL     1     -10.835  14.929  66.000  1.00  0.00    -0.320 N  
HETATM   13  C   UNL     1     -11.925  14.125  65.763  1.00  0.00    -0.402 C  
HETATM   14  H   UNL     1     -10.051  14.558  66.536  1.00  0.00     0.000 HD 
HETATM   15  O   UNL     1     -12.903  14.467  65.123  1.00  0.00    -0.602 OA 
BRANCH  13  16
HETATM   16  C   UNL     1     -11.814  12.796  66.460  1.00  0.00    -0.471 C  
BRANCH  16  17
HETATM   17  C   UNL     1     -11.182  12.889  67.842  1.00  0.00    -0.306 C  
BRANCH  17  18
HETATM   18  C   UNL     1     -12.070  13.604  68.872  1.00  0.00    -0.335 C  
BRANCH  18  19
HETATM   19  C   UNL     1     -11.401  14.738  69.660  1.00  0.00    -0.316 C  
BRANCH  19  20
HETATM   20  C   UNL     1     -12.358  15.738  70.252  1.00  0.00    -0.341 C  
HETATM   21  C   UNL     1     -12.901  15.687  71.481  1.00  0.00    -0.538 C  
HETATM   22  C   UNL     1     -12.549  14.708  72.573  1.00  0.00    -0.415 C  
HETATM   23  C   UNL     1     -13.462  13.483  72.550  1.00  0.00    -0.660 C  
HETATM   24  C   UNL     1     -12.610  15.400  73.933  1.00  0.00    -0.750 C  
ENDBRANCH  19  20
ENDBRANCH  18  19
ENDBRANCH  17  18
ENDBRANCH  16  17
ENDBRANCH  13  16
ENDBRANCH  11  12
ENDBRANCH   9  11
ENDBRANCH   2   3
TORSDOF 8
ENDMDL
MODEL       28
REMARK 921   NORMALIZED FREE ENERGY PREDICTED BY IDOCK:   -5.70 KCAL/MOL
REMARK 922        TOTAL FREE ENERGY PREDICTED BY IDOCK:   -9.58 KCAL/MOL
REMARK 923 INTER-LIGAND FREE ENERGY PREDICTED BY IDOCK:   -7.83 KCAL/MOL
REMARK 924 INTRA-LIGAND FREE ENERGY PREDICTED BY IDOCK:   -1.75 KCAL/MOL
REMARK 927      BINDING AFFINITY PREDICTED BY RF-SCORE:    0.00 PKD
ROOT
HETATM    1  C   UNL     1     -10.554  19.662  67.756  1.00  0.00    -0.396 C  
HETATM    2  O   UNL     1      -9.611  18.712  68.257  1.00  0.00    -0.315 OA 
ENDROOT
BRANCH   2   3
HETATM    3  C   UNL     1      -9.549  17.550  67.535  1.00  0.00    -0.265 A  
HETATM    4  C   UNL     1      -8.499  16.682  67.836  1.00  0.00    -0.194 A  
HETATM    5  O   UNL     1      -7.593  17.006  68.808  1.00  0.00    -0.225 OA 
HETATM    6  C   UNL     1      -8.322  15.489  67.140  1.00  0.00    -0.243 A  
HETATM    7  C   UNL     1      -9.212  15.161  66.117  1.00  0.00    -0.318 A  
HETATM    8  H   UNL     1      -6.879  16.414  69.013  1.00  0.00     0.000 HD 
HETATM    9  C   UNL     1     -10.287  16.004  65.810  1.00  0.00    -0.398 A  
HETATM   10  C   UNL     1     -10.462  17.190  66.544  1.00  0.00    -0.255 A  
BRANCH   9  11
HETATM   11  C   UNL     1     -11.210  15.715  64.656  1.00  0.00    -0.369 C  
BRANCH  11  12
HETATM   12  N   UNL     1     -11.121  14.350  64.228  1.00  0.00    -0.605 N  
HETATM   13  C   UNL     1     -12.137  13.453  64.457  1.00  0.00    -0.409 C  
HETATM   14  H   UNL     1     -10.282  14.036  63.740  1.00  0.00     0.000 HD 
HETATM   15  O   UNL     1     -13.183  13.730  65.016  1.00  0.00    -0.733 OA 
BRANCH  13  16
HETATM   16  C   UNL     1     -11.776  12.060  64.016  1.00  0.00    -0.498 C  
BRANCH  16  17
HETATM   17  C   UNL     1     -10.341  11.935  63.523  1.00  0.00    -0.495 C  
BRANCH  17  18
HETATM   18  C   UNL     1      -9.779  10.510  63.635  1.00  0.00    -0.375 C  
BRANCH  18  19
HETATM   19  C   UNL     1      -9.102  10.161  64.967  1.00  0.00    -0.245 C  
BRANCH  19  20
HETATM   20  C   UNL     1     -10.036   9.630  66.022  1.00  0.00    -0.344 C  
HETATM   21  C   UNL     1     -10.528  10.317  67.068  1.00  0.00    -0.304 C  
HETATM   22  C   UNL     1     -10.373  11.797  67.317  1.00  0.00    -0.231 C  
HETATM   23  C   UNL     1      -9.161  12.099  68.196  1.00  0.00    -0.196 C  
HETATM   24  C   UNL     1     -11.647  12.357  67.945  1.00  0.00    -0.415 C  
ENDBRANCH  19  20
ENDBRANCH  18  19
ENDBRANCH  17  18
ENDBRANCH  16  17
ENDBRANCH  13  16
ENDBRANCH  11  12
ENDBRANCH   9  11
ENDBRANCH   2   3
TORSDOF 8
ENDMDL
MODEL       29
REMARK 921   NORMALIZED FREE ENERGY PREDICTED BY IDOCK:   -5.69 KCAL/MOL
REMARK 922        TOTAL FREE ENERGY PREDICTED BY IDOCK:   -9.57 KCAL/MOL
REMARK 923 INTER-LIGAND FREE ENERGY PREDICTED BY IDOCK:   -8.45 KCAL/MOL
REMARK 924 INTRA-LIGAND FREE ENERGY PREDICTED BY IDOCK:   -1.12 KCAL/MOL
REMARK 927      BINDING AFFINITY PREDICTED BY RF-SCORE:    0.00 PKD
ROOT
HETATM    1  C   UNL     1     -10.967   6.681  71.885  1.00  0.00    -0.244 C  
HETATM    2  O   UNL     1     -12.266   7.270  71.795  1.00  0.00    -0.306 OA 
ENDROOT
BRANCH   2   3
HETATM    3  C   UNL     1     -12.254   8.610  71.509  1.00  0.00    -0.318 A  
HETATM    4  C   UNL     1     -13.178   9.403  72.191  1.00  0.00    -0.460 A  
HETATM    5  O   UNL     1     -14.039   8.839  73.091  1.00  0.00    -1.089 OA 
HETATM    6  C   UNL     1     -13.275  10.771  71.952  1.00  0.00    -0.524 A  
HETATM    7  C   UNL     1     -12.433  11.357  71.006  1.00  0.00    -0.486 A  
HETATM    8  H   UNL     1     -14.668   9.379  73.556  1.00  0.00     0.000 HD 
HETATM    9  C   UNL     1     -11.482  10.588  70.324  1.00  0.00    -0.416 A  
HETATM   10  C   UNL     1     -11.383   9.213  70.602  1.00  0.00    -0.323 A  
BRANCH   9  11
HETATM   11  C   UNL     1     -10.621  11.179  69.240  1.00  0.00    -0.175 C  
BRANCH  11  12
HETATM   12  N   UNL     1     -10.925  10.626  67.954  1.00  0.00    -0.273 N  
HETATM   13  C   UNL     1     -10.022  10.669  66.918  1.00  0.00    -0.202 C  
HETATM   14  H   UNL     1     -11.835  10.190  67.803  1.00  0.00     0.000 HD 
HETATM   15  O   UNL     1      -8.908  11.153  66.999  1.00  0.00    -0.144 OA 
BRANCH  13  16
HETATM   16  C   UNL     1     -10.599  10.126  65.638  1.00  0.00     0.019 C  
BRANCH  16  17
HETATM   17  C   UNL     1      -9.723  10.387  64.421  1.00  0.00    -0.396 C  
BRANCH  17  18
HETATM   18  C   UNL     1     -10.304  11.439  63.464  1.00  0.00    -0.476 C  
BRANCH  18  19
HETATM   19  C   UNL     1     -11.749  11.873  63.745  1.00  0.00    -0.554 C  
BRANCH  19  20
HETATM   20  C   UNL     1     -12.014  13.340  63.534  1.00  0.00    -0.537 C  
HETATM   21  C   UNL     1     -11.811  14.321  64.431  1.00  0.00    -0.444 C  
HETATM   22  C   UNL     1     -11.137  14.179  65.774  1.00  0.00    -0.309 C  
HETATM   23  C   UNL     1     -12.147  13.909  66.887  1.00  0.00    -0.467 C  
HETATM   24  C   UNL     1     -10.319  15.431  66.080  1.00  0.00    -0.325 C  
ENDBRANCH  19  20
ENDBRANCH  18  19
ENDBRANCH  17  18
ENDBRANCH  16  17
ENDBRANCH  13  16
ENDBRANCH  11  12
ENDBRANCH   9  11
ENDBRANCH   2   3
TORSDOF 8
ENDMDL
MODEL       30
REMARK 921   NORMALIZED FREE ENERGY PREDICTED BY IDOCK:   -5.67 KCAL/MOL
REMARK 922        TOTAL FREE ENERGY PREDICTED BY IDOCK:   -9.53 KCAL/MOL
REMARK 923 INTER-LIGAND FREE ENERGY PREDICTED BY IDOCK:   -8.37 KCAL/MOL
REMARK 924 INTRA-LIGAND FREE ENERGY PREDICTED BY IDOCK:   -1.16 KCAL/MOL
REMARK 927      BINDING AFFINITY PREDICTED BY RF-SCORE:    0.00 PKD
ROOT
HETATM    1  C   UNL     1      -9.354  10.880  63.783  1.00  0.00    -0.248 C  
HETATM    2  O   UNL     1     -10.780  10.932  63.859  1.00  0.00    -0.339 OA 
ENDROOT
BRANCH   2   3
HETATM    3  C   UNL     1     -11.260  11.822  64.783  1.00  0.00    -0.271 A  
HETATM    4  C   UNL     1     -11.849  12.984  64.285  1.00  0.00    -0.396 A  
HETATM    5  O   UNL     1     -11.927  13.195  62.936  1.00  0.00    -0.788 OA 
HETATM    6  C   UNL     1     -12.339  13.972  65.135  1.00  0.00    -0.468 A  
HETATM    7  C   UNL     1     -12.231  13.795  66.515  1.00  0.00    -0.475 A  
HETATM    8  H   UNL     1     -12.329  13.985  62.596  1.00  0.00     0.000 HD 
HETATM    9  C   UNL     1     -11.664  12.628  67.042  1.00  0.00    -0.438 A  
HETATM   10  C   UNL     1     -11.201  11.632  66.164  1.00  0.00    -0.314 A  
BRANCH   9  11
HETATM   11  C   UNL     1     -11.460  12.450  68.523  1.00  0.00    -0.306 C  
BRANCH  11  12
HETATM   12  N   UNL     1     -10.801  13.578  69.111  1.00  0.00    -0.407 N  
HETATM   13  C   UNL     1     -11.479  14.482  69.896  1.00  0.00    -0.270 C  
HETATM   14  H   UNL     1      -9.804  13.714  68.944  1.00  0.00     0.000 HD 
HETATM   15  O   UNL     1     -12.662  14.401  70.167  1.00  0.00    -0.334 OA 
BRANCH  13  16
HETATM   16  C   UNL     1     -10.609  15.636  70.314  1.00  0.00    -0.329 C  
BRANCH  16  17
HETATM   17  C   UNL     1      -9.920  16.329  69.145  1.00  0.00    -0.260 C  
BRANCH  17  18
HETATM   18  C   UNL     1     -10.901  16.946  68.137  1.00  0.00    -0.351 C  
BRANCH  18  19
HETATM   19  C   UNL     1     -10.266  17.707  66.966  1.00  0.00    -0.332 C  
BRANCH  19  20
HETATM   20  C   UNL     1     -10.365  19.206  67.066  1.00  0.00    -0.503 C  
HETATM   21  C   UNL     1      -9.353  20.054  67.324  1.00  0.00    -0.496 C  
HETATM   22  C   UNL     1      -7.890  19.697  67.413  1.00  0.00    -0.302 C  
HETATM   23  C   UNL     1      -7.470  19.386  68.848  1.00  0.00    -0.399 C  
HETATM   24  C   UNL     1      -7.042  20.830  66.838  1.00  0.00    -0.343 C  
ENDBRANCH  19  20
ENDBRANCH  18  19
ENDBRANCH  17  18
ENDBRANCH  16  17
ENDBRANCH  13  16
ENDBRANCH  11  12
ENDBRANCH   9  11
ENDBRANCH   2   3
TORSDOF 8
ENDMDL
MODEL       31
REMARK 921   NORMALIZED FREE ENERGY PREDICTED BY IDOCK:   -5.66 KCAL/MOL
REMARK 922        TOTAL FREE ENERGY PREDICTED BY IDOCK:   -9.52 KCAL/MOL
REMARK 923 INTER-LIGAND FREE ENERGY PREDICTED BY IDOCK:   -7.84 KCAL/MOL
REMARK 924 INTRA-LIGAND FREE ENERGY PREDICTED BY IDOCK:   -1.68 KCAL/MOL
REMARK 927      BINDING AFFINITY PREDICTED BY RF-SCORE:    0.00 PKD
ROOT
HETATM    1  C   UNL     1     -12.458  15.521  70.319  1.00  0.00    -0.367 C  
HETATM    2  O   UNL     1     -11.709  14.392  69.866  1.00  0.00    -0.271 OA 
ENDROOT
BRANCH   2   3
HETATM    3  C   UNL     1     -11.076  14.585  68.667  1.00  0.00    -0.257 A  
HETATM    4  C   UNL     1      -9.700  14.812  68.716  1.00  0.00    -0.222 A  
HETATM    5  O   UNL     1      -9.047  14.837  69.917  1.00  0.00    -0.393 OA 
HETATM    6  C   UNL     1      -8.963  15.053  67.559  1.00  0.00    -0.189 A  
HETATM    7  C   UNL     1      -9.619  15.074  66.328  1.00  0.00    -0.335 A  
HETATM    8  H   UNL     1      -8.110  14.991  69.950  1.00  0.00     0.000 HD 
HETATM    9  C   UNL     1     -10.995  14.827  66.249  1.00  0.00    -0.330 A  
HETATM   10  C   UNL     1     -11.714  14.558  67.427  1.00  0.00    -0.425 A  
BRANCH   9  11
HETATM   11  C   UNL     1     -11.740  14.926  64.944  1.00  0.00    -0.371 C  
BRANCH  11  12
HETATM   12  N   UNL     1     -11.472  13.809  64.088  1.00  0.00    -0.572 N  
HETATM   13  C   UNL     1     -12.248  12.674  64.119  1.00  0.00    -0.450 C  
HETATM   14  H   UNL     1     -10.686  13.856  63.440  1.00  0.00     0.000 HD 
HETATM   15  O   UNL     1     -13.215  12.523  64.843  1.00  0.00    -0.787 OA 
BRANCH  13  16
HETATM   16  C   UNL     1     -11.715  11.597  63.213  1.00  0.00    -0.233 C  
BRANCH  16  17
HETATM   17  C   UNL     1     -10.212  11.391  63.338  1.00  0.00    -0.457 C  
BRANCH  17  18
HETATM   18  C   UNL     1      -9.821  10.399  64.444  1.00  0.00    -0.395 C  
BRANCH  18  19
HETATM   19  C   UNL     1      -9.460  11.018  65.801  1.00  0.00    -0.242 C  
BRANCH  19  20
HETATM   20  C   UNL     1     -10.599  11.077  66.784  1.00  0.00    -0.317 C  
HETATM   21  C   UNL     1     -10.943  10.117  67.661  1.00  0.00    -0.331 C  
HETATM   22  C   UNL     1     -10.172   8.852  67.948  1.00  0.00    -0.274 C  
HETATM   23  C   UNL     1     -10.655   7.687  67.087  1.00  0.00    -0.410 C  
HETATM   24  C   UNL     1     -10.275   8.505  69.432  1.00  0.00    -0.211 C  
ENDBRANCH  19  20
ENDBRANCH  18  19
ENDBRANCH  17  18
ENDBRANCH  16  17
ENDBRANCH  13  16
ENDBRANCH  11  12
ENDBRANCH   9  11
ENDBRANCH   2   3
TORSDOF 8
ENDMDL
MODEL       32
REMARK 921   NORMALIZED FREE ENERGY PREDICTED BY IDOCK:   -5.65 KCAL/MOL
REMARK 922        TOTAL FREE ENERGY PREDICTED BY IDOCK:   -9.51 KCAL/MOL
REMARK 923 INTER-LIGAND FREE ENERGY PREDICTED BY IDOCK:   -8.32 KCAL/MOL
REMARK 924 INTRA-LIGAND FREE ENERGY PREDICTED BY IDOCK:   -1.19 KCAL/MOL
REMARK 927      BINDING AFFINITY PREDICTED BY RF-SCORE:    0.00 PKD
ROOT
HETATM    1  C   UNL     1     -10.993  15.961  69.718  1.00  0.00    -0.328 C  
HETATM    2  O   UNL     1     -12.149  15.788  70.539  1.00  0.00    -0.371 OA 
ENDROOT
BRANCH   2   3
HETATM    3  C   UNL     1     -12.447  14.481  70.819  1.00  0.00    -0.351 A  
HETATM    4  C   UNL     1     -13.252  14.248  71.935  1.00  0.00    -0.375 A  
HETATM    5  O   UNL     1     -13.703  15.295  72.691  1.00  0.00    -0.463 OA 
HETATM    6  C   UNL     1     -13.588  12.956  72.330  1.00  0.00    -0.577 A  
HETATM    7  C   UNL     1     -13.102  11.873  71.596  1.00  0.00    -0.433 A  
HETATM    8  H   UNL     1     -14.251  15.136  73.450  1.00  0.00     0.000 HD 
HETATM    9  C   UNL     1     -12.311  12.080  70.459  1.00  0.00    -0.369 A  
HETATM   10  C   UNL     1     -12.007  13.394  70.063  1.00  0.00    -0.407 A  
BRANCH   9  11
HETATM   11  C   UNL     1     -11.706  10.929  69.700  1.00  0.00    -0.331 C  
BRANCH  11  12
HETATM   12  N   UNL     1     -11.089  11.358  68.480  1.00  0.00    -0.214 N  
HETATM   13  C   UNL     1     -10.721  10.462  67.504  1.00  0.00    -0.287 C  
HETATM   14  H   UNL     1     -10.919  12.353  68.332  1.00  0.00     0.000 HD 
HETATM   15  O   UNL     1     -10.893   9.259  67.577  1.00  0.00    -0.259 OA 
BRANCH  13  16
HETATM   16  C   UNL     1      -9.998  11.129  66.365  1.00  0.00    -0.257 C  
BRANCH  16  17
HETATM   17  C   UNL     1     -10.044  10.331  65.069  1.00  0.00    -0.353 C  
BRANCH  17  18
HETATM   18  C   UNL     1     -10.453  11.170  63.849  1.00  0.00    -0.445 C  
BRANCH  18  19
HETATM   19  C   UNL     1     -11.926  11.596  63.793  1.00  0.00    -0.357 C  
BRANCH  19  20
HETATM   20  C   UNL     1     -12.149  13.016  63.346  1.00  0.00    -0.591 C  
HETATM   21  C   UNL     1     -11.945  14.123  64.083  1.00  0.00    -0.421 C  
HETATM   22  C   UNL     1     -11.309  14.181  65.450  1.00  0.00    -0.322 C  
HETATM   23  C   UNL     1     -12.352  14.111  66.563  1.00  0.00    -0.405 C  
HETATM   24  C   UNL     1     -10.467  15.449  65.579  1.00  0.00    -0.402 C  
ENDBRANCH  19  20
ENDBRANCH  18  19
ENDBRANCH  17  18
ENDBRANCH  16  17
ENDBRANCH  13  16
ENDBRANCH  11  12
ENDBRANCH   9  11
ENDBRANCH   2   3
TORSDOF 8
ENDMDL
MODEL       33
REMARK 921   NORMALIZED FREE ENERGY PREDICTED BY IDOCK:   -5.63 KCAL/MOL
REMARK 922        TOTAL FREE ENERGY PREDICTED BY IDOCK:   -9.48 KCAL/MOL
REMARK 923 INTER-LIGAND FREE ENERGY PREDICTED BY IDOCK:   -8.31 KCAL/MOL
REMARK 924 INTRA-LIGAND FREE ENERGY PREDICTED BY IDOCK:   -1.17 KCAL/MOL
REMARK 927      BINDING AFFINITY PREDICTED BY RF-SCORE:    0.00 PKD
ROOT
HETATM    1  C   UNL     1     -12.819  15.985  73.800  1.00  0.00    -0.572 C  
HETATM    2  O   UNL     1     -13.762  15.610  72.795  1.00  0.00    -0.543 OA 
ENDROOT
BRANCH   2   3
HETATM    3  C   UNL     1     -13.214  14.929  71.740  1.00  0.00    -0.349 A  
HETATM    4  C   UNL     1     -13.200  13.537  71.834  1.00  0.00    -0.422 A  
HETATM    5  O   UNL     1     -13.713  12.914  72.938  1.00  0.00    -0.684 OA 
HETATM    6  C   UNL     1     -12.637  12.748  70.834  1.00  0.00    -0.342 A  
HETATM    7  C   UNL     1     -12.071  13.366  69.719  1.00  0.00    -0.374 A  
HETATM    8  H   UNL     1     -13.704  11.967  73.002  1.00  0.00     0.000 HD 
HETATM    9  C   UNL     1     -12.092  14.761  69.589  1.00  0.00    -0.346 A  
HETATM   10  C   UNL     1     -12.690  15.536  70.598  1.00  0.00    -0.487 A  
BRANCH   9  11
HETATM   11  C   UNL     1     -11.414  15.455  68.438  1.00  0.00    -0.355 C  
BRANCH  11  12
HETATM   12  N   UNL     1     -10.753  14.529  67.568  1.00  0.00    -0.272 N  
HETATM   13  C   UNL     1     -11.417  13.907  66.537  1.00  0.00    -0.348 C  
HETATM   14  H   UNL     1      -9.765  14.326  67.717  1.00  0.00     0.000 HD 
HETATM   15  O   UNL     1     -12.589  14.092  66.266  1.00  0.00    -0.451 OA 
BRANCH  13  16
HETATM   16  C   UNL     1     -10.551  12.900  65.828  1.00  0.00    -0.293 C  
BRANCH  16  17
HETATM   17  C   UNL     1      -9.870  11.919  66.772  1.00  0.00    -0.214 C  
BRANCH  17  18
HETATM   18  C   UNL     1     -10.618  10.584  66.909  1.00  0.00    -0.303 C  
BRANCH  18  19
HETATM   19  C   UNL     1     -11.186  10.276  68.301  1.00  0.00    -0.295 C  
BRANCH  19  20
HETATM   20  C   UNL     1     -10.156  10.220  69.398  1.00  0.00    -0.255 C  
HETATM   21  C   UNL     1     -10.281   9.577  70.573  1.00  0.00    -0.349 C  
HETATM   22  C   UNL     1     -11.407   8.656  70.973  1.00  0.00    -0.322 C  
HETATM   23  C   UNL     1     -12.512   9.404  71.716  1.00  0.00    -0.471 C  
HETATM   24  C   UNL     1     -10.866   7.510  71.824  1.00  0.00    -0.261 C  
ENDBRANCH  19  20
ENDBRANCH  18  19
ENDBRANCH  17  18
ENDBRANCH  16  17
ENDBRANCH  13  16
ENDBRANCH  11  12
ENDBRANCH   9  11
ENDBRANCH   2   3
TORSDOF 8
ENDMDL
MODEL       34
REMARK 921   NORMALIZED FREE ENERGY PREDICTED BY IDOCK:   -5.63 KCAL/MOL
REMARK 922        TOTAL FREE ENERGY PREDICTED BY IDOCK:   -9.47 KCAL/MOL
REMARK 923 INTER-LIGAND FREE ENERGY PREDICTED BY IDOCK:   -8.06 KCAL/MOL
REMARK 924 INTRA-LIGAND FREE ENERGY PREDICTED BY IDOCK:   -1.42 KCAL/MOL
REMARK 927      BINDING AFFINITY PREDICTED BY RF-SCORE:    0.00 PKD
ROOT
HETATM    1  C   UNL     1     -13.673  13.519  72.236  1.00  0.00    -0.602 C  
HETATM    2  O   UNL     1     -13.739  12.097  72.361  1.00  0.00    -0.303 OA 
ENDROOT
BRANCH   2   3
HETATM    3  C   UNL     1     -12.902  11.421  71.513  1.00  0.00    -0.403 A  
HETATM    4  C   UNL     1     -12.650  10.083  71.819  1.00  0.00    -0.409 A  
HETATM    5  O   UNL     1     -13.223   9.506  72.919  1.00  0.00    -0.486 OA 
HETATM    6  C   UNL     1     -11.788   9.312  71.044  1.00  0.00    -0.376 A  
HETATM    7  C   UNL     1     -11.160   9.894  69.942  1.00  0.00    -0.318 A  
HETATM    8  H   UNL     1     -13.051   8.596  73.126  1.00  0.00     0.000 HD 
HETATM    9  C   UNL     1     -11.414  11.229  69.600  1.00  0.00    -0.380 A  
HETATM   10  C   UNL     1     -12.309  11.980  70.381  1.00  0.00    -0.317 A  
BRANCH   9  11
HETATM   11  C   UNL     1     -10.686  11.904  68.468  1.00  0.00    -0.224 C  
BRANCH  11  12
HETATM   12  N   UNL     1     -11.585  12.352  67.446  1.00  0.00    -0.350 N  
HETATM   13  C   UNL     1     -11.426  11.983  66.131  1.00  0.00    -0.339 C  
HETATM   14  H   UNL     1     -12.363  12.961  67.701  1.00  0.00     0.000 HD 
HETATM   15  O   UNL     1     -10.542  11.250  65.728  1.00  0.00    -0.258 OA 
BRANCH  13  16
HETATM   16  C   UNL     1     -12.421  12.658  65.227  1.00  0.00    -0.483 C  
BRANCH  16  17
HETATM   17  C   UNL     1     -12.531  14.158  65.462  1.00  0.00    -0.495 C  
BRANCH  17  18
HETATM   18  C   UNL     1     -11.566  14.984  64.597  1.00  0.00    -0.386 C  
BRANCH  18  19
HETATM   19  C   UNL     1     -10.633  15.935  65.358  1.00  0.00    -0.439 C  
BRANCH  19  20
HETATM   20  C   UNL     1      -9.664  15.252  66.285  1.00  0.00    -0.325 C  
HETATM   21  C   UNL     1      -9.607  15.392  67.622  1.00  0.00    -0.210 C  
HETATM   22  C   UNL     1     -10.594  16.141  68.484  1.00  0.00    -0.284 C  
HETATM   23  C   UNL     1     -10.164  17.589  68.709  1.00  0.00    -0.373 C  
HETATM   24  C   UNL     1     -10.774  15.418  69.817  1.00  0.00    -0.300 C  
ENDBRANCH  19  20
ENDBRANCH  18  19
ENDBRANCH  17  18
ENDBRANCH  16  17
ENDBRANCH  13  16
ENDBRANCH  11  12
ENDBRANCH   9  11
ENDBRANCH   2   3
TORSDOF 8
ENDMDL
MODEL       35
REMARK 921   NORMALIZED FREE ENERGY PREDICTED BY IDOCK:   -5.61 KCAL/MOL
REMARK 922        TOTAL FREE ENERGY PREDICTED BY IDOCK:   -9.45 KCAL/MOL
REMARK 923 INTER-LIGAND FREE ENERGY PREDICTED BY IDOCK:   -8.00 KCAL/MOL
REMARK 924 INTRA-LIGAND FREE ENERGY PREDICTED BY IDOCK:   -1.44 KCAL/MOL
REMARK 927      BINDING AFFINITY PREDICTED BY RF-SCORE:    0.00 PKD
ROOT
HETATM    1  C   UNL     1     -10.457  18.454  65.880  1.00  0.00    -0.321 C  
HETATM    2  O   UNL     1     -10.192  17.094  65.530  1.00  0.00    -0.592 OA 
ENDROOT
BRANCH   2   3
HETATM    3  C   UNL     1     -10.695  16.179  66.417  1.00  0.00    -0.211 A  
HETATM    4  C   UNL     1     -11.067  14.941  65.894  1.00  0.00    -0.338 A  
HETATM    5  O   UNL     1     -10.926  14.685  64.558  1.00  0.00    -0.578 OA 
HETATM    6  C   UNL     1     -11.621  13.950  66.700  1.00  0.00    -0.392 A  
HETATM    7  C   UNL     1     -11.813  14.207  68.058  1.00  0.00    -0.400 A  
HETATM    8  H   UNL     1     -11.178  13.841  64.202  1.00  0.00     0.000 HD 
HETATM    9  C   UNL     1     -11.428  15.434  68.612  1.00  0.00    -0.357 A  
HETATM   10  C   UNL     1     -10.845  16.409  67.785  1.00  0.00    -0.306 A  
BRANCH   9  11
HETATM   11  C   UNL     1     -11.700  15.767  70.055  1.00  0.00    -0.355 C  
BRANCH  11  12
HETATM   12  N   UNL     1     -12.287  14.665  70.757  1.00  0.00    -0.305 N  
HETATM   13  C   UNL     1     -13.546  14.745  71.304  1.00  0.00    -0.412 C  
HETATM   14  H   UNL     1     -11.758  13.798  70.854  1.00  0.00     0.000 HD 
HETATM   15  O   UNL     1     -14.264  15.726  71.231  1.00  0.00    -0.476 OA 
BRANCH  13  16
HETATM   16  C   UNL     1     -13.908  13.509  72.082  1.00  0.00    -0.628 C  
BRANCH  16  17
HETATM   17  C   UNL     1     -12.790  12.476  72.131  1.00  0.00    -0.189 C  
BRANCH  17  18
HETATM   18  C   UNL     1     -13.244  11.064  71.734  1.00  0.00    -0.505 C  
BRANCH  18  19
HETATM   19  C   UNL     1     -12.440  10.393  70.613  1.00  0.00    -0.437 C  
BRANCH  19  20
HETATM   20  C   UNL     1     -11.173  11.112  70.236  1.00  0.00    -0.126 C  
HETATM   21  C   UNL     1     -10.418  10.876  69.148  1.00  0.00    -0.248 C  
HETATM   22  C   UNL     1     -10.762   9.952  68.005  1.00  0.00    -0.296 C  
HETATM   23  C   UNL     1     -10.191   8.552  68.218  1.00  0.00    -0.244 C  
HETATM   24  C   UNL     1     -10.262  10.543  66.689  1.00  0.00    -0.289 C  
ENDBRANCH  19  20
ENDBRANCH  18  19
ENDBRANCH  17  18
ENDBRANCH  16  17
ENDBRANCH  13  16
ENDBRANCH  11  12
ENDBRANCH   9  11
ENDBRANCH   2   3
TORSDOF 8
ENDMDL
MODEL       36
REMARK 921   NORMALIZED FREE ENERGY PREDICTED BY IDOCK:   -5.60 KCAL/MOL
REMARK 922        TOTAL FREE ENERGY PREDICTED BY IDOCK:   -9.43 KCAL/MOL
REMARK 923 INTER-LIGAND FREE ENERGY PREDICTED BY IDOCK:   -8.01 KCAL/MOL
REMARK 924 INTRA-LIGAND FREE ENERGY PREDICTED BY IDOCK:   -1.43 KCAL/MOL
REMARK 927      BINDING AFFINITY PREDICTED BY RF-SCORE:    0.00 PKD
ROOT
HETATM    1  C   UNL     1     -12.403  12.184  63.633  1.00  0.00    -0.568 C  
HETATM    2  O   UNL     1     -12.494  13.603  63.769  1.00  0.00    -0.703 OA 
ENDROOT
BRANCH   2   3
HETATM    3  C   UNL     1     -11.761  14.114  64.807  1.00  0.00    -0.410 A  
HETATM    4  C   UNL     1     -11.409  15.461  64.721  1.00  0.00    -0.376 A  
HETATM    5  O   UNL     1     -11.791  16.206  63.639  1.00  0.00    -1.370 OA 
HETATM    6  C   UNL     1     -10.636  16.074  65.704  1.00  0.00    -0.392 A  
HETATM    7  C   UNL     1     -10.201  15.319  66.794  1.00  0.00    -0.273 A  
HETATM    8  H   UNL     1     -11.552  17.124  63.581  1.00  0.00     0.000 HD 
HETATM    9  C   UNL     1     -10.559  13.971  66.916  1.00  0.00    -0.280 A  
HETATM   10  C   UNL     1     -11.363  13.381  65.926  1.00  0.00    -0.327 A  
BRANCH   9  11
HETATM   11  C   UNL     1     -10.034  13.115  68.038  1.00  0.00    -0.233 C  
BRANCH  11  12
HETATM   12  N   UNL     1      -8.926  13.729  68.706  1.00  0.00    -0.374 N  
HETATM   13  C   UNL     1      -7.626  13.393  68.409  1.00  0.00    -0.133 C  
HETATM   14  H   UNL     1      -9.105  14.434  69.421  1.00  0.00     0.000 HD 
HETATM   15  O   UNL     1      -7.305  12.577  67.564  1.00  0.00    -0.127 OA 
BRANCH  13  16
HETATM   16  C   UNL     1      -6.639  14.086  69.309  1.00  0.00    -0.120 C  
BRANCH  16  17
HETATM   17  C   UNL     1      -6.055  15.354  68.703  1.00  0.00    -0.096 C  
BRANCH  17  18
HETATM   18  C   UNL     1      -6.493  16.636  69.428  1.00  0.00    -0.220 C  
BRANCH  18  19
HETATM   19  C   UNL     1      -6.343  17.939  68.632  1.00  0.00    -0.209 C  
BRANCH  19  20
HETATM   20  C   UNL     1      -6.948  17.903  67.253  1.00  0.00    -0.204 C  
HETATM   21  C   UNL     1      -8.133  18.426  66.890  1.00  0.00    -0.257 C  
HETATM   22  C   UNL     1      -9.028  19.288  67.746  1.00  0.00    -0.354 C  
HETATM   23  C   UNL     1     -10.071  18.456  68.490  1.00  0.00    -0.413 C  
HETATM   24  C   UNL     1      -9.703  20.354  66.885  1.00  0.00    -0.567 C  
ENDBRANCH  19  20
ENDBRANCH  18  19
ENDBRANCH  17  18
ENDBRANCH  16  17
ENDBRANCH  13  16
ENDBRANCH  11  12
ENDBRANCH   9  11
ENDBRANCH   2   3
TORSDOF 8
ENDMDL
MODEL       37
REMARK 921   NORMALIZED FREE ENERGY PREDICTED BY IDOCK:   -5.58 KCAL/MOL
REMARK 922        TOTAL FREE ENERGY PREDICTED BY IDOCK:   -9.41 KCAL/MOL
REMARK 923 INTER-LIGAND FREE ENERGY PREDICTED BY IDOCK:   -8.24 KCAL/MOL
REMARK 924 INTRA-LIGAND FREE ENERGY PREDICTED BY IDOCK:   -1.17 KCAL/MOL
REMARK 927      BINDING AFFINITY PREDICTED BY RF-SCORE:    0.00 PKD
ROOT
HETATM    1  C   UNL     1      -9.610  17.369  66.853  1.00  0.00    -0.277 C  
HETATM    2  O   UNL     1      -9.856  16.757  65.585  1.00  0.00    -0.544 OA 
ENDROOT
BRANCH   2   3
HETATM    3  C   UNL     1     -10.600  15.609  65.653  1.00  0.00    -0.378 A  
HETATM    4  C   UNL     1     -11.563  15.429  64.660  1.00  0.00    -0.311 A  
HETATM    5  O   UNL     1     -11.733  16.371  63.683  1.00  0.00    -1.520 OA 
HETATM    6  C   UNL     1     -12.398  14.314  64.652  1.00  0.00    -0.433 A  
HETATM    7  C   UNL     1     -12.270  13.362  65.664  1.00  0.00    -0.510 A  
HETATM    8  H   UNL     1     -12.388  16.249  63.007  1.00  0.00     0.000 HD 
HETATM    9  C   UNL     1     -11.296  13.508  66.660  1.00  0.00    -0.344 A  
HETATM   10  C   UNL     1     -10.446  14.627  66.632  1.00  0.00    -0.278 A  
BRANCH   9  11
HETATM   11  C   UNL     1     -11.192  12.540  67.808  1.00  0.00    -0.269 C  
BRANCH  11  12
HETATM   12  N   UNL     1     -11.246  11.178  67.366  1.00  0.00    -0.303 N  
HETATM   13  C   UNL     1     -10.105  10.436  67.172  1.00  0.00    -0.208 C  
HETATM   14  H   UNL     1     -12.154  10.747  67.192  1.00  0.00     0.000 HD 
HETATM   15  O   UNL     1      -8.977  10.850  67.367  1.00  0.00    -0.136 OA 
BRANCH  13  16
HETATM   16  C   UNL     1     -10.402   9.073  66.607  1.00  0.00    -0.289 C  
BRANCH  16  17
HETATM   17  C   UNL     1      -9.240   8.098  66.738  1.00  0.00    -0.206 C  
BRANCH  17  18
HETATM   18  C   UNL     1      -9.596   6.827  67.524  1.00  0.00    -0.146 C  
BRANCH  18  19
HETATM   19  C   UNL     1     -11.023   6.763  68.083  1.00  0.00    -0.277 C  
BRANCH  19  20
HETATM   20  C   UNL     1     -11.106   6.423  69.548  1.00  0.00    -0.460 C  
HETATM   21  C   UNL     1     -11.047   7.294  70.571  1.00  0.00    -0.290 C  
HETATM   22  C   UNL     1     -11.038   8.799  70.463  1.00  0.00    -0.278 C  
HETATM   23  C   UNL     1      -9.616   9.356  70.424  1.00  0.00    -0.319 C  
HETATM   24  C   UNL     1     -11.824   9.409  71.623  1.00  0.00    -0.464 C  
ENDBRANCH  19  20
ENDBRANCH  18  19
ENDBRANCH  17  18
ENDBRANCH  16  17
ENDBRANCH  13  16
ENDBRANCH  11  12
ENDBRANCH   9  11
ENDBRANCH   2   3
TORSDOF 8
ENDMDL
MODEL       38
REMARK 921   NORMALIZED FREE ENERGY PREDICTED BY IDOCK:   -5.58 KCAL/MOL
REMARK 922        TOTAL FREE ENERGY PREDICTED BY IDOCK:   -9.41 KCAL/MOL
REMARK 923 INTER-LIGAND FREE ENERGY PREDICTED BY IDOCK:   -8.23 KCAL/MOL
REMARK 924 INTRA-LIGAND FREE ENERGY PREDICTED BY IDOCK:   -1.17 KCAL/MOL
REMARK 927      BINDING AFFINITY PREDICTED BY RF-SCORE:    0.00 PKD
ROOT
HETATM    1  C   UNL     1     -11.812  16.045  71.328  1.00  0.00    -0.449 C  
HETATM    2  O   UNL     1     -12.956  15.299  70.908  1.00  0.00    -0.410 OA 
ENDROOT
BRANCH   2   3
HETATM    3  C   UNL     1     -12.699  13.980  70.642  1.00  0.00    -0.303 A  
HETATM    4  C   UNL     1     -13.132  13.055  71.592  1.00  0.00    -0.347 A  
HETATM    5  O   UNL     1     -13.776  13.476  72.723  1.00  0.00    -0.710 OA 
HETATM    6  C   UNL     1     -12.892  11.692  71.439  1.00  0.00    -0.461 A  
HETATM    7  C   UNL     1     -12.199  11.246  70.313  1.00  0.00    -0.428 A  
HETATM    8  H   UNL     1     -14.071  12.846  73.369  1.00  0.00     0.000 HD 
HETATM    9  C   UNL     1     -11.773  12.152  69.333  1.00  0.00    -0.391 A  
HETATM   10  C   UNL     1     -12.050  13.521  69.496  1.00  0.00    -0.352 A  
BRANCH   9  11
HETATM   11  C   UNL     1     -10.952  11.708  68.153  1.00  0.00    -0.226 C  
BRANCH  11  12
HETATM   12  N   UNL     1     -11.307  12.412  66.957  1.00  0.00    -0.306 N  
HETATM   13  C   UNL     1     -10.431  12.537  65.905  1.00  0.00    -0.265 C  
HETATM   14  H   UNL     1     -12.234  12.832  66.884  1.00  0.00     0.000 HD 
HETATM   15  O   UNL     1      -9.311  12.062  65.885  1.00  0.00    -0.225 OA 
BRANCH  13  16
HETATM   16  C   UNL     1     -10.982  13.406  64.806  1.00  0.00    -0.371 C  
BRANCH  16  17
HETATM   17  C   UNL     1     -11.578  14.713  65.311  1.00  0.00    -0.354 C  
BRANCH  17  18
HETATM   18  C   UNL     1     -10.543  15.839  65.460  1.00  0.00    -0.424 C  
BRANCH  18  19
HETATM   19  C   UNL     1      -9.829  15.916  66.816  1.00  0.00    -0.254 C  
BRANCH  19  20
HETATM   20  C   UNL     1     -10.566  16.702  67.867  1.00  0.00    -0.342 C  
HETATM   21  C   UNL     1     -10.317  17.973  68.229  1.00  0.00    -0.389 C  
HETATM   22  C   UNL     1      -9.355  18.922  67.557  1.00  0.00    -0.327 C  
HETATM   23  C   UNL     1      -7.975  18.882  68.209  1.00  0.00    -0.343 C  
HETATM   24  C   UNL     1      -9.921  20.340  67.579  1.00  0.00    -0.557 C  
ENDBRANCH  19  20
ENDBRANCH  18  19
ENDBRANCH  17  18
ENDBRANCH  16  17
ENDBRANCH  13  16
ENDBRANCH  11  12
ENDBRANCH   9  11
ENDBRANCH   2   3
TORSDOF 8
ENDMDL
MODEL       39
REMARK 921   NORMALIZED FREE ENERGY PREDICTED BY IDOCK:   -5.57 KCAL/MOL
REMARK 922        TOTAL FREE ENERGY PREDICTED BY IDOCK:   -9.40 KCAL/MOL
REMARK 923 INTER-LIGAND FREE ENERGY PREDICTED BY IDOCK:   -8.21 KCAL/MOL
REMARK 924 INTRA-LIGAND FREE ENERGY PREDICTED BY IDOCK:   -1.19 KCAL/MOL
REMARK 927      BINDING AFFINITY PREDICTED BY RF-SCORE:    0.00 PKD
ROOT
HETATM    1  C   UNL     1     -12.379  16.030  72.475  1.00  0.00    -0.496 C  
HETATM    2  O   UNL     1     -13.352  15.387  71.650  1.00  0.00    -0.422 OA 
ENDROOT
BRANCH   2   3
HETATM    3  C   UNL     1     -12.923  14.214  71.087  1.00  0.00    -0.349 A  
HETATM    4  C   UNL     1     -13.298  13.037  71.734  1.00  0.00    -0.378 A  
HETATM    5  O   UNL     1     -14.056  13.085  72.871  1.00  0.00    -0.647 OA 
HETATM    6  C   UNL     1     -12.888  11.790  71.267  1.00  0.00    -0.409 A  
HETATM    7  C   UNL     1     -12.080  11.723  70.132  1.00  0.00    -0.398 A  
HETATM    8  H   UNL     1     -14.312  12.283  73.311  1.00  0.00     0.000 HD 
HETATM    9  C   UNL     1     -11.707  12.888  69.452  1.00  0.00    -0.382 A  
HETATM   10  C   UNL     1     -12.155  14.134  69.925  1.00  0.00    -0.405 A  
BRANCH   9  11
HETATM   11  C   UNL     1     -10.768  12.848  68.276  1.00  0.00    -0.244 C  
BRANCH  11  12
HETATM   12  N   UNL     1     -10.101  14.102  68.080  1.00  0.00    -0.228 N  
HETATM   13  C   UNL     1     -10.306  14.860  66.951  1.00  0.00    -0.264 C  
HETATM   14  H   UNL     1      -9.459  14.440  68.796  1.00  0.00     0.000 HD 
HETATM   15  O   UNL     1     -11.061  14.553  66.047  1.00  0.00    -0.317 OA 
BRANCH  13  16
HETATM   16  C   UNL     1      -9.422  16.077  66.916  1.00  0.00    -0.242 C  
BRANCH  16  17
HETATM   17  C   UNL     1      -9.154  16.670  68.292  1.00  0.00    -0.218 C  
BRANCH  17  18
HETATM   18  C   UNL     1     -10.295  17.560  68.806  1.00  0.00    -0.358 C  
BRANCH  18  19
HETATM   19  C   UNL     1     -10.026  19.071  68.784  1.00  0.00    -0.475 C  
BRANCH  19  20
HETATM   20  C   UNL     1     -10.142  19.707  67.425  1.00  0.00    -0.536 C  
HETATM   21  C   UNL     1      -9.124  20.025  66.606  1.00  0.00    -0.463 C  
HETATM   22  C   UNL     1      -7.671  19.675  66.810  1.00  0.00    -0.288 C  
HETATM   23  C   UNL     1      -6.916  20.788  67.534  1.00  0.00    -0.406 C  
HETATM   24  C   UNL     1      -7.016  19.366  65.465  1.00  0.00    -0.283 C  
ENDBRANCH  19  20
ENDBRANCH  18  19
ENDBRANCH  17  18
ENDBRANCH  16  17
ENDBRANCH  13  16
ENDBRANCH  11  12
ENDBRANCH   9  11
ENDBRANCH   2   3
TORSDOF 8
ENDMDL
MODEL       40
REMARK 921   NORMALIZED FREE ENERGY PREDICTED BY IDOCK:   -5.56 KCAL/MOL
REMARK 922        TOTAL FREE ENERGY PREDICTED BY IDOCK:   -9.38 KCAL/MOL
REMARK 923 INTER-LIGAND FREE ENERGY PREDICTED BY IDOCK:   -8.33 KCAL/MOL
REMARK 924 INTRA-LIGAND FREE ENERGY PREDICTED BY IDOCK:   -1.05 KCAL/MOL
REMARK 927      BINDING AFFINITY PREDICTED BY RF-SCORE:    0.00 PKD
ROOT
HETATM    1  C   UNL     1     -12.392  14.816  64.382  1.00  0.00    -0.368 C  
HETATM    2  O   UNL     1     -12.484  13.445  63.989  1.00  0.00    -0.632 OA 
ENDROOT
BRANCH   2   3
HETATM    3  C   UNL     1     -11.808  12.581  64.809  1.00  0.00    -0.383 A  
HETATM    4  C   UNL     1     -10.888  11.729  64.196  1.00  0.00    -0.360 A  
HETATM    5  O   UNL     1     -10.697  11.777  62.843  1.00  0.00    -0.659 OA 
HETATM    6  C   UNL     1     -10.171  10.787  64.930  1.00  0.00    -0.388 A  
HETATM    7  C   UNL     1     -10.383  10.694  66.306  1.00  0.00    -0.296 A  
HETATM    8  H   UNL     1     -10.071  11.197  62.426  1.00  0.00     0.000 HD 
HETATM    9  C   UNL     1     -11.284  11.552  66.949  1.00  0.00    -0.363 A  
HETATM   10  C   UNL     1     -11.976  12.513  66.192  1.00  0.00    -0.432 A  
BRANCH   9  11
HETATM   11  C   UNL     1     -11.592  11.416  68.416  1.00  0.00    -0.315 C  
BRANCH  11  12
HETATM   12  N   UNL     1     -11.723  12.691  69.056  1.00  0.00    -0.305 N  
HETATM   13  C   UNL     1     -12.181  12.807  70.348  1.00  0.00    -0.293 C  
HETATM   14  H   UNL     1     -11.471  13.534  68.541  1.00  0.00     0.000 HD 
HETATM   15  O   UNL     1     -12.493  11.864  71.052  1.00  0.00    -0.369 OA 
BRANCH  13  16
HETATM   16  C   UNL     1     -12.336  14.243  70.769  1.00  0.00    -0.427 C  
BRANCH  16  17
HETATM   17  C   UNL     1     -12.274  15.224  69.607  1.00  0.00    -0.304 C  
BRANCH  17  18
HETATM   18  C   UNL     1     -11.072  16.178  69.674  1.00  0.00    -0.344 C  
BRANCH  18  19
HETATM   19  C   UNL     1     -10.041  16.035  68.547  1.00  0.00    -0.233 C  
BRANCH  19  20
HETATM   20  C   UNL     1     -10.474  16.616  67.227  1.00  0.00    -0.313 C  
HETATM   21  C   UNL     1     -10.149  17.830  66.748  1.00  0.00    -0.349 C  
HETATM   22  C   UNL     1      -9.166  18.798  67.358  1.00  0.00    -0.302 C  
HETATM   23  C   UNL     1      -9.854  19.788  68.296  1.00  0.00    -0.537 C  
HETATM   24  C   UNL     1      -8.409  19.536  66.256  1.00  0.00    -0.359 C  
ENDBRANCH  19  20
ENDBRANCH  18  19
ENDBRANCH  17  18
ENDBRANCH  16  17
ENDBRANCH  13  16
ENDBRANCH  11  12
ENDBRANCH   9  11
ENDBRANCH   2   3
TORSDOF 8
ENDMDL
MODEL       41
REMARK 921   NORMALIZED FREE ENERGY PREDICTED BY IDOCK:   -5.56 KCAL/MOL
REMARK 922        TOTAL FREE ENERGY PREDICTED BY IDOCK:   -9.38 KCAL/MOL
REMARK 923 INTER-LIGAND FREE ENERGY PREDICTED BY IDOCK:   -8.10 KCAL/MOL
REMARK 924 INTRA-LIGAND FREE ENERGY PREDICTED BY IDOCK:   -1.28 KCAL/MOL
REMARK 927      BINDING AFFINITY PREDICTED BY RF-SCORE:    0.00 PKD
ROOT
HETATM    1  C   UNL     1     -10.632   6.720  72.610  1.00  0.00    -0.223 C  
HETATM    2  O   UNL     1     -11.195   7.955  73.057  1.00  0.00    -0.411 OA 
ENDROOT
BRANCH   2   3
HETATM    3  C   UNL     1     -11.424   8.861  72.055  1.00  0.00    -0.361 A  
HETATM    4  C   UNL     1     -12.677   9.473  72.040  1.00  0.00    -0.396 A  
HETATM    5  O   UNL     1     -13.610   9.159  72.989  1.00  0.00    -0.872 OA 
HETATM    6  C   UNL     1     -13.028  10.384  71.047  1.00  0.00    -0.490 A  
HETATM    7  C   UNL     1     -12.104  10.685  70.045  1.00  0.00    -0.393 A  
HETATM    8  H   UNL     1     -14.464   9.576  72.979  1.00  0.00     0.000 HD 
HETATM    9  C   UNL     1     -10.831  10.102  70.050  1.00  0.00    -0.361 A  
HETATM   10  C   UNL     1     -10.490   9.206  71.078  1.00  0.00    -0.368 A  
BRANCH   9  11
HETATM   11  C   UNL     1      -9.849  10.346  68.936  1.00  0.00    -0.200 C  
BRANCH  11  12
HETATM   12  N   UNL     1      -9.468  11.724  68.849  1.00  0.00    -0.410 N  
HETATM   13  C   UNL     1      -8.780  12.217  67.765  1.00  0.00    -0.171 C  
HETATM   14  H   UNL     1      -9.713  12.356  69.611  1.00  0.00     0.000 HD 
HETATM   15  O   UNL     1      -8.454  11.551  66.800  1.00  0.00    -0.159 OA 
BRANCH  13  16
HETATM   16  C   UNL     1      -8.396  13.661  67.944  1.00  0.00    -0.174 C  
BRANCH  16  17
HETATM   17  C   UNL     1      -9.199  14.612  67.066  1.00  0.00    -0.252 C  
BRANCH  17  18
HETATM   18  C   UNL     1     -10.573  14.969  67.651  1.00  0.00    -0.267 C  
BRANCH  18  19
HETATM   19  C   UNL     1     -11.787  14.536  66.818  1.00  0.00    -0.390 C  
BRANCH  19  20
HETATM   20  C   UNL     1     -12.035  13.051  66.801  1.00  0.00    -0.434 C  
HETATM   21  C   UNL     1     -11.810  12.220  65.767  1.00  0.00    -0.417 C  
HETATM   22  C   UNL     1     -11.124  12.572  64.471  1.00  0.00    -0.357 C  
HETATM   23  C   UNL     1     -12.124  12.997  63.398  1.00  0.00    -0.591 C  
HETATM   24  C   UNL     1     -10.285  11.390  63.988  1.00  0.00    -0.398 C  
ENDBRANCH  19  20
ENDBRANCH  18  19
ENDBRANCH  17  18
ENDBRANCH  16  17
ENDBRANCH  13  16
ENDBRANCH  11  12
ENDBRANCH   9  11
ENDBRANCH   2   3
TORSDOF 8
ENDMDL
MODEL       42
REMARK 921   NORMALIZED FREE ENERGY PREDICTED BY IDOCK:   -5.55 KCAL/MOL
REMARK 922        TOTAL FREE ENERGY PREDICTED BY IDOCK:   -9.36 KCAL/MOL
REMARK 923 INTER-LIGAND FREE ENERGY PREDICTED BY IDOCK:   -8.30 KCAL/MOL
REMARK 924 INTRA-LIGAND FREE ENERGY PREDICTED BY IDOCK:   -1.06 KCAL/MOL
REMARK 927      BINDING AFFINITY PREDICTED BY RF-SCORE:    0.00 PKD
ROOT
HETATM    1  C   UNL     1     -10.893   9.752  67.835  1.00  0.00    -0.242 C  
HETATM    2  O   UNL     1      -9.990   9.935  66.743  1.00  0.00    -0.192 OA 
ENDROOT
BRANCH   2   3
HETATM    3  C   UNL     1     -10.431  10.817  65.792  1.00  0.00    -0.188 A  
HETATM    4  C   UNL     1     -10.106  10.524  64.468  1.00  0.00    -0.332 A  
HETATM    5  O   UNL     1      -9.379   9.405  64.167  1.00  0.00    -0.426 OA 
HETATM    6  C   UNL     1     -10.475  11.370  63.426  1.00  0.00    -0.452 A  
HETATM    7  C   UNL     1     -11.180  12.539  63.717  1.00  0.00    -0.524 A  
HETATM    8  H   UNL     1      -9.158   9.205  63.265  1.00  0.00     0.000 HD 
HETATM    9  C   UNL     1     -11.538  12.845  65.036  1.00  0.00    -0.367 A  
HETATM   10  C   UNL     1     -11.179  11.962  66.068  1.00  0.00    -0.377 A  
BRANCH   9  11
HETATM   11  C   UNL     1     -12.224  14.139  65.385  1.00  0.00    -0.433 C  
BRANCH  11  12
HETATM   12  N   UNL     1     -11.333  15.062  66.024  1.00  0.00    -0.313 N  
HETATM   13  C   UNL     1     -10.883  16.192  65.382  1.00  0.00    -0.307 C  
HETATM   14  H   UNL     1     -11.025  14.876  66.978  1.00  0.00     0.000 HD 
HETATM   15  O   UNL     1     -11.203  16.512  64.252  1.00  0.00    -0.992 OA 
BRANCH  13  16
HETATM   16  C   UNL     1      -9.878  16.950  66.206  1.00  0.00    -0.320 C  
BRANCH  16  17
HETATM   17  C   UNL     1     -10.474  17.585  67.455  1.00  0.00    -0.342 C  
BRANCH  17  18
HETATM   18  C   UNL     1     -10.852  19.062  67.269  1.00  0.00    -0.494 C  
BRANCH  18  19
HETATM   19  C   UNL     1      -9.920  20.081  67.937  1.00  0.00    -0.558 C  
BRANCH  19  20
HETATM   20  C   UNL     1      -8.752  20.510  67.089  1.00  0.00    -0.375 C  
HETATM   21  C   UNL     1      -7.502  20.018  67.150  1.00  0.00    -0.306 C  
HETATM   22  C   UNL     1      -7.046  18.836  67.968  1.00  0.00    -0.255 C  
HETATM   23  C   UNL     1      -6.521  19.263  69.337  1.00  0.00    -0.346 C  
HETATM   24  C   UNL     1      -5.981  18.052  67.203  1.00  0.00    -0.157 C  
ENDBRANCH  19  20
ENDBRANCH  18  19
ENDBRANCH  17  18
ENDBRANCH  16  17
ENDBRANCH  13  16
ENDBRANCH  11  12
ENDBRANCH   9  11
ENDBRANCH   2   3
TORSDOF 8
ENDMDL
MODEL       43
REMARK 921   NORMALIZED FREE ENERGY PREDICTED BY IDOCK:   -5.55 KCAL/MOL
REMARK 922        TOTAL FREE ENERGY PREDICTED BY IDOCK:   -9.36 KCAL/MOL
REMARK 923 INTER-LIGAND FREE ENERGY PREDICTED BY IDOCK:   -8.22 KCAL/MOL
REMARK 924 INTRA-LIGAND FREE ENERGY PREDICTED BY IDOCK:   -1.14 KCAL/MOL
REMARK 927      BINDING AFFINITY PREDICTED BY RF-SCORE:    0.00 PKD
ROOT
HETATM    1  C   UNL     1     -10.473  14.393  68.733  1.00  0.00    -0.244 C  
HETATM    2  O   UNL     1     -11.753  14.790  69.228  1.00  0.00    -0.284 OA 
ENDROOT
BRANCH   2   3
HETATM    3  C   UNL     1     -12.282  13.938  70.162  1.00  0.00    -0.358 A  
HETATM    4  C   UNL     1     -13.043  14.518  71.176  1.00  0.00    -0.359 A  
HETATM    5  O   UNL     1     -13.232  15.872  71.211  1.00  0.00    -0.548 OA 
HETATM    6  C   UNL     1     -13.599  13.749  72.196  1.00  0.00    -0.613 A  
HETATM    7  C   UNL     1     -13.383  12.370  72.202  1.00  0.00    -0.508 A  
HETATM    8  H   UNL     1     -13.751  16.266  71.901  1.00  0.00     0.000 HD 
HETATM    9  C   UNL     1     -12.641  11.761  71.182  1.00  0.00    -0.412 A  
HETATM   10  C   UNL     1     -12.112  12.553  70.149  1.00  0.00    -0.368 A  
BRANCH   9  11
HETATM   11  C   UNL     1     -12.322  10.290  71.211  1.00  0.00    -0.403 C  
BRANCH  11  12
HETATM   12  N   UNL     1     -11.557   9.885  70.069  1.00  0.00    -0.389 N  
HETATM   13  C   UNL     1     -10.834   8.715  70.062  1.00  0.00    -0.221 C  
HETATM   14  H   UNL     1     -11.549  10.480  69.241  1.00  0.00     0.000 HD 
HETATM   15  O   UNL     1     -10.790   7.931  70.992  1.00  0.00    -0.229 OA 
BRANCH  13  16
HETATM   16  C   UNL     1     -10.028   8.553  68.802  1.00  0.00    -0.197 C  
BRANCH  16  17
HETATM   17  C   UNL     1     -10.491   9.457  67.668  1.00  0.00    -0.328 C  
BRANCH  17  18
HETATM   18  C   UNL     1     -10.053   8.968  66.279  1.00  0.00    -0.311 C  
BRANCH  18  19
HETATM   19  C   UNL     1      -9.904  10.053  65.204  1.00  0.00    -0.388 C  
BRANCH  19  20
HETATM   20  C   UNL     1      -9.653  11.436  65.742  1.00  0.00    -0.260 C  
HETATM   21  C   UNL     1     -10.463  12.501  65.607  1.00  0.00    -0.299 C  
HETATM   22  C   UNL     1     -11.855  12.496  65.024  1.00  0.00    -0.445 C  
HETATM   23  C   UNL     1     -11.844  12.812  63.530  1.00  0.00    -0.618 C  
HETATM   24  C   UNL     1     -12.739  13.487  65.778  1.00  0.00    -0.433 C  
ENDBRANCH  19  20
ENDBRANCH  18  19
ENDBRANCH  17  18
ENDBRANCH  16  17
ENDBRANCH  13  16
ENDBRANCH  11  12
ENDBRANCH   9  11
ENDBRANCH   2   3
TORSDOF 8
ENDMDL
MODEL       44
REMARK 921   NORMALIZED FREE ENERGY PREDICTED BY IDOCK:   -5.54 KCAL/MOL
REMARK 922        TOTAL FREE ENERGY PREDICTED BY IDOCK:   -9.35 KCAL/MOL
REMARK 923 INTER-LIGAND FREE ENERGY PREDICTED BY IDOCK:   -7.90 KCAL/MOL
REMARK 924 INTRA-LIGAND FREE ENERGY PREDICTED BY IDOCK:   -1.45 KCAL/MOL
REMARK 927      BINDING AFFINITY PREDICTED BY RF-SCORE:    0.00 PKD
ROOT
HETATM    1  C   UNL     1     -14.388  14.871  71.886  1.00  0.00    -0.576 C  
HETATM    2  O   UNL     1     -13.260  14.036  72.155  1.00  0.00    -0.368 OA 
ENDROOT
BRANCH   2   3
HETATM    3  C   UNL     1     -12.770  13.386  71.053  1.00  0.00    -0.307 A  
HETATM    4  C   UNL     1     -12.670  11.997  71.141  1.00  0.00    -0.266 A  
HETATM    5  O   UNL     1     -13.048  11.348  72.284  1.00  0.00    -0.510 OA 
HETATM    6  C   UNL     1     -12.153  11.239  70.093  1.00  0.00    -0.448 A  
HETATM    7  C   UNL     1     -11.723  11.887  68.934  1.00  0.00    -0.381 A  
HETATM    8  H   UNL     1     -12.980  10.402  72.343  1.00  0.00     0.000 HD 
HETATM    9  C   UNL     1     -11.833  13.278  68.812  1.00  0.00    -0.371 A  
HETATM   10  C   UNL     1     -12.383  14.019  69.872  1.00  0.00    -0.367 A  
BRANCH   9  11
HETATM   11  C   UNL     1     -11.299  14.008  67.609  1.00  0.00    -0.312 C  
BRANCH  11  12
HETATM   12  N   UNL     1     -11.311  13.186  66.436  1.00  0.00    -0.305 N  
HETATM   13  C   UNL     1     -12.274  13.327  65.465  1.00  0.00    -0.457 C  
HETATM   14  H   UNL     1     -10.585  12.479  66.317  1.00  0.00     0.000 HD 
HETATM   15  O   UNL     1     -13.172  14.148  65.504  1.00  0.00    -0.688 OA 
BRANCH  13  16
HETATM   16  C   UNL     1     -12.147  12.288  64.383  1.00  0.00    -0.481 C  
BRANCH  16  17
HETATM   17  C   UNL     1     -10.882  12.437  63.548  1.00  0.00    -0.487 C  
BRANCH  17  18
HETATM   18  C   UNL     1     -10.310  11.098  63.061  1.00  0.00    -0.217 C  
BRANCH  18  19
HETATM   19  C   UNL     1      -8.835  10.840  63.395  1.00  0.00    -0.161 C  
BRANCH  19  20
HETATM   20  C   UNL     1      -8.556   9.486  63.992  1.00  0.00    -0.222 C  
HETATM   21  C   UNL     1      -8.837   9.099  65.249  1.00  0.00    -0.240 C  
HETATM   22  C   UNL     1      -9.623   9.883  66.271  1.00  0.00    -0.265 C  
HETATM   23  C   UNL     1      -8.713  10.730  67.157  1.00  0.00    -0.131 C  
HETATM   24  C   UNL     1     -10.468   8.933  67.118  1.00  0.00    -0.344 C  
ENDBRANCH  19  20
ENDBRANCH  18  19
ENDBRANCH  17  18
ENDBRANCH  16  17
ENDBRANCH  13  16
ENDBRANCH  11  12
ENDBRANCH   9  11
ENDBRANCH   2   3
TORSDOF 8
ENDMDL
MODEL       45
REMARK 921   NORMALIZED FREE ENERGY PREDICTED BY IDOCK:   -5.52 KCAL/MOL
REMARK 922        TOTAL FREE ENERGY PREDICTED BY IDOCK:   -9.32 KCAL/MOL
REMARK 923 INTER-LIGAND FREE ENERGY PREDICTED BY IDOCK:   -8.60 KCAL/MOL
REMARK 924 INTRA-LIGAND FREE ENERGY PREDICTED BY IDOCK:   -0.72 KCAL/MOL
REMARK 927      BINDING AFFINITY PREDICTED BY RF-SCORE:    0.00 PKD
ROOT
HETATM    1  C   UNL     1     -13.332   9.379  71.822  1.00  0.00    -0.415 C  
HETATM    2  O   UNL     1     -13.388  10.714  72.327  1.00  0.00    -0.386 OA 
ENDROOT
BRANCH   2   3
HETATM    3  C   UNL     1     -12.929  11.663  71.452  1.00  0.00    -0.324 A  
HETATM    4  C   UNL     1     -13.299  12.983  71.711  1.00  0.00    -0.378 A  
HETATM    5  O   UNL     1     -14.083  13.281  72.792  1.00  0.00    -0.716 OA 
HETATM    6  C   UNL     1     -12.916  14.023  70.868  1.00  0.00    -0.347 A  
HETATM    7  C   UNL     1     -12.151  13.733  69.737  1.00  0.00    -0.400 A  
HETATM    8  H   UNL     1     -14.334  14.180  72.968  1.00  0.00     0.000 HD 
HETATM    9  C   UNL     1     -11.748  12.420  69.466  1.00  0.00    -0.388 A  
HETATM   10  C   UNL     1     -12.123  11.390  70.347  1.00  0.00    -0.473 A  
BRANCH   9  11
HETATM   11  C   UNL     1     -10.995  12.070  68.210  1.00  0.00    -0.234 C  
BRANCH  11  12
HETATM   12  N   UNL     1     -11.673  12.528  67.034  1.00  0.00    -0.372 N  
HETATM   13  C   UNL     1     -11.212  12.233  65.773  1.00  0.00    -0.337 C  
HETATM   14  H   UNL     1     -12.520  13.088  67.135  1.00  0.00     0.000 HD 
HETATM   15  O   UNL     1     -10.222  11.562  65.545  1.00  0.00    -0.237 OA 
BRANCH  13  16
HETATM   16  C   UNL     1     -12.021  12.908  64.699  1.00  0.00    -0.445 C  
BRANCH  16  17
HETATM   17  C   UNL     1     -12.134  14.415  64.884  1.00  0.00    -0.442 C  
BRANCH  17  18
HETATM   18  C   UNL     1     -10.780  15.139  64.838  1.00  0.00    -0.421 C  
BRANCH  18  19
HETATM   19  C   UNL     1     -10.451  16.021  66.050  1.00  0.00    -0.356 C  
BRANCH  19  20
HETATM   20  C   UNL     1      -9.032  16.521  66.092  1.00  0.00    -0.344 C  
HETATM   21  C   UNL     1      -8.616  17.692  66.607  1.00  0.00    -0.282 C  
HETATM   22  C   UNL     1      -9.457  18.675  67.383  1.00  0.00    -0.315 C  
HETATM   23  C   UNL     1     -10.064  19.742  66.474  1.00  0.00    -0.589 C  
HETATM   24  C   UNL     1      -8.621  19.319  68.486  1.00  0.00    -0.400 C  
ENDBRANCH  19  20
ENDBRANCH  18  19
ENDBRANCH  17  18
ENDBRANCH  16  17
ENDBRANCH  13  16
ENDBRANCH  11  12
ENDBRANCH   9  11
ENDBRANCH   2   3
TORSDOF 8
ENDMDL
MODEL       46
REMARK 921   NORMALIZED FREE ENERGY PREDICTED BY IDOCK:   -5.49 KCAL/MOL
REMARK 922        TOTAL FREE ENERGY PREDICTED BY IDOCK:   -9.28 KCAL/MOL
REMARK 923 INTER-LIGAND FREE ENERGY PREDICTED BY IDOCK:   -8.31 KCAL/MOL
REMARK 924 INTRA-LIGAND FREE ENERGY PREDICTED BY IDOCK:   -0.97 KCAL/MOL
REMARK 927      BINDING AFFINITY PREDICTED BY RF-SCORE:    0.00 PKD
ROOT
HETATM    1  C   UNL     1      -9.971  10.523  64.196  1.00  0.00    -0.318 C  
HETATM    2  O   UNL     1     -10.333  11.860  63.848  1.00  0.00    -0.317 OA 
ENDROOT
BRANCH   2   3
HETATM    3  C   UNL     1     -10.924  12.563  64.864  1.00  0.00    -0.300 A  
HETATM    4  C   UNL     1     -11.958  13.429  64.507  1.00  0.00    -0.407 A  
HETATM    5  O   UNL     1     -12.337  13.549  63.198  1.00  0.00    -0.968 OA 
HETATM    6  C   UNL     1     -12.605  14.217  65.455  1.00  0.00    -0.501 A  
HETATM    7  C   UNL     1     -12.204  14.140  66.790  1.00  0.00    -0.429 A  
HETATM    8  H   UNL     1     -13.041  14.138  62.955  1.00  0.00     0.000 HD 
HETATM    9  C   UNL     1     -11.183  13.263  67.178  1.00  0.00    -0.327 A  
HETATM   10  C   UNL     1     -10.563  12.457  66.208  1.00  0.00    -0.277 A  
BRANCH   9  11
HETATM   11  C   UNL     1     -10.676  13.223  68.595  1.00  0.00    -0.259 C  
BRANCH  11  12
HETATM   12  N   UNL     1     -11.528  12.447  69.447  1.00  0.00    -0.361 N  
HETATM   13  C   UNL     1     -12.230  13.021  70.481  1.00  0.00    -0.313 C  
HETATM   14  H   UNL     1     -11.616  11.445  69.282  1.00  0.00     0.000 HD 
HETATM   15  O   UNL     1     -12.205  14.208  70.751  1.00  0.00    -0.321 OA 
BRANCH  13  16
HETATM   16  C   UNL     1     -12.969  11.999  71.302  1.00  0.00    -0.315 C  
BRANCH  16  17
HETATM   17  C   UNL     1     -12.673  10.563  70.889  1.00  0.00    -0.495 C  
BRANCH  17  18
HETATM   18  C   UNL     1     -13.075   9.528  71.950  1.00  0.00    -0.517 C  
BRANCH  18  19
HETATM   19  C   UNL     1     -12.100   8.359  72.148  1.00  0.00    -0.435 C  
BRANCH  19  20
HETATM   20  C   UNL     1     -12.382   7.158  71.286  1.00  0.00    -0.418 C  
HETATM   21  C   UNL     1     -11.624   6.714  70.268  1.00  0.00    -0.454 C  
HETATM   22  C   UNL     1     -10.263   7.232  69.875  1.00  0.00    -0.210 C  
HETATM   23  C   UNL     1     -10.358   8.322  68.810  1.00  0.00    -0.223 C  
HETATM   24  C   UNL     1      -9.386   6.080  69.391  1.00  0.00    -0.146 C  
ENDBRANCH  19  20
ENDBRANCH  18  19
ENDBRANCH  17  18
ENDBRANCH  16  17
ENDBRANCH  13  16
ENDBRANCH  11  12
ENDBRANCH   9  11
ENDBRANCH   2   3
TORSDOF 8
ENDMDL
MODEL       47
REMARK 921   NORMALIZED FREE ENERGY PREDICTED BY IDOCK:   -5.49 KCAL/MOL
REMARK 922        TOTAL FREE ENERGY PREDICTED BY IDOCK:   -9.27 KCAL/MOL
REMARK 923 INTER-LIGAND FREE ENERGY PREDICTED BY IDOCK:   -8.49 KCAL/MOL
REMARK 924 INTRA-LIGAND FREE ENERGY PREDICTED BY IDOCK:   -0.78 KCAL/MOL
REMARK 927      BINDING AFFINITY PREDICTED BY RF-SCORE:    0.00 PKD
ROOT
HETATM    1  C   UNL     1     -12.448   9.105  71.988  1.00  0.00    -0.382 C  
HETATM    2  O   UNL     1     -13.285  10.263  71.979  1.00  0.00    -0.450 OA 
ENDROOT
BRANCH   2   3
HETATM    3  C   UNL     1     -12.812  11.290  71.206  1.00  0.00    -0.389 A  
HETATM    4  C   UNL     1     -13.046  12.584  71.673  1.00  0.00    -0.315 A  
HETATM    5  O   UNL     1     -13.719  12.783  72.847  1.00  0.00    -0.676 OA 
HETATM    6  C   UNL     1     -12.639  13.701  70.949  1.00  0.00    -0.421 A  
HETATM    7  C   UNL     1     -11.988  13.519  69.728  1.00  0.00    -0.405 A  
HETATM    8  H   UNL     1     -13.878  13.663  73.165  1.00  0.00     0.000 HD 
HETATM    9  C   UNL     1     -11.720  12.231  69.248  1.00  0.00    -0.388 A  
HETATM   10  C   UNL     1     -12.117  11.118  70.009  1.00  0.00    -0.437 A  
BRANCH   9  11
HETATM   11  C   UNL     1     -11.096  12.009  67.896  1.00  0.00    -0.236 C  
BRANCH  11  12
HETATM   12  N   UNL     1     -11.096  13.202  67.103  1.00  0.00    -0.272 N  
HETATM   13  C   UNL     1     -11.858  13.311  65.963  1.00  0.00    -0.395 C  
HETATM   14  H   UNL     1     -10.517  13.990  67.391  1.00  0.00     0.000 HD 
HETATM   15  O   UNL     1     -12.593  12.436  65.543  1.00  0.00    -0.616 OA 
BRANCH  13  16
HETATM   16  C   UNL     1     -11.616  14.609  65.240  1.00  0.00    -0.354 C  
BRANCH  16  17
HETATM   17  C   UNL     1     -10.341  15.317  65.679  1.00  0.00    -0.389 C  
BRANCH  17  18
HETATM   18  C   UNL     1     -10.598  16.541  66.570  1.00  0.00    -0.217 C  
BRANCH  18  19
HETATM   19  C   UNL     1     -10.518  17.905  65.872  1.00  0.00    -0.253 C  
BRANCH  19  20
HETATM   20  C   UNL     1     -10.568  19.088  66.802  1.00  0.00    -0.508 C  
HETATM   21  C   UNL     1      -9.517  19.663  67.414  1.00  0.00    -0.433 C  
HETATM   22  C   UNL     1      -8.061  19.343  67.178  1.00  0.00    -0.293 C  
HETATM   23  C   UNL     1      -7.548  18.287  68.155  1.00  0.00    -0.278 C  
HETATM   24  C   UNL     1      -7.226  20.618  67.274  1.00  0.00    -0.388 C  
ENDBRANCH  19  20
ENDBRANCH  18  19
ENDBRANCH  17  18
ENDBRANCH  16  17
ENDBRANCH  13  16
ENDBRANCH  11  12
ENDBRANCH   9  11
ENDBRANCH   2   3
TORSDOF 8
ENDMDL
MODEL       48
REMARK 921   NORMALIZED FREE ENERGY PREDICTED BY IDOCK:   -5.49 KCAL/MOL
REMARK 922        TOTAL FREE ENERGY PREDICTED BY IDOCK:   -9.27 KCAL/MOL
REMARK 923 INTER-LIGAND FREE ENERGY PREDICTED BY IDOCK:   -8.37 KCAL/MOL
REMARK 924 INTRA-LIGAND FREE ENERGY PREDICTED BY IDOCK:   -0.90 KCAL/MOL
REMARK 927      BINDING AFFINITY PREDICTED BY RF-SCORE:    0.00 PKD
ROOT
HETATM    1  C   UNL     1     -12.209  12.954  65.501  1.00  0.00    -0.474 C  
HETATM    2  O   UNL     1     -11.000  13.271  66.193  1.00  0.00    -0.278 OA 
ENDROOT
BRANCH   2   3
HETATM    3  C   UNL     1     -11.144  14.231  67.159  1.00  0.00    -0.311 A  
HETATM    4  C   UNL     1     -10.644  15.499  66.860  1.00  0.00    -0.307 A  
HETATM    5  O   UNL     1     -10.044  15.738  65.655  1.00  0.00    -0.330 OA 
HETATM    6  C   UNL     1     -10.707  16.540  67.783  1.00  0.00    -0.329 A  
HETATM    7  C   UNL     1     -11.278  16.305  69.034  1.00  0.00    -0.326 A  
HETATM    8  H   UNL     1      -9.704  16.601  65.451  1.00  0.00     0.000 HD 
HETATM    9  C   UNL     1     -11.807  15.047  69.352  1.00  0.00    -0.358 A  
HETATM   10  C   UNL     1     -11.757  14.019  68.394  1.00  0.00    -0.389 A  
BRANCH   9  11
HETATM   11  C   UNL     1     -12.351  14.744  70.722  1.00  0.00    -0.330 C  
BRANCH  11  12
HETATM   12  N   UNL     1     -12.426  13.335  70.969  1.00  0.00    -0.370 N  
HETATM   13  C   UNL     1     -13.312  12.807  71.879  1.00  0.00    -0.413 C  
HETATM   14  H   UNL     1     -11.808  12.707  70.456  1.00  0.00     0.000 HD 
HETATM   15  O   UNL     1     -14.101  13.467  72.530  1.00  0.00    -0.731 OA 
BRANCH  13  16
HETATM   16  C   UNL     1     -13.137  11.322  72.047  1.00  0.00    -0.431 C  
BRANCH  16  17
HETATM   17  C   UNL     1     -12.986  10.578  70.727  1.00  0.00    -0.413 C  
BRANCH  17  18
HETATM   18  C   UNL     1     -11.700   9.743  70.640  1.00  0.00    -0.377 C  
BRANCH  18  19
HETATM   19  C   UNL     1     -11.257   9.059  71.940  1.00  0.00    -0.438 C  
BRANCH  19  20
HETATM   20  C   UNL     1     -12.027   7.813  72.285  1.00  0.00    -0.356 C  
HETATM   21  C   UNL     1     -11.836   6.589  71.761  1.00  0.00    -0.384 C  
HETATM   22  C   UNL     1     -10.716   6.178  70.837  1.00  0.00    -0.316 C  
HETATM   23  C   UNL     1     -11.116   6.312  69.369  1.00  0.00    -0.477 C  
HETATM   24  C   UNL     1     -10.281   4.748  71.149  1.00  0.00    -0.229 C  
ENDBRANCH  19  20
ENDBRANCH  18  19
ENDBRANCH  17  18
ENDBRANCH  16  17
ENDBRANCH  13  16
ENDBRANCH  11  12
ENDBRANCH   9  11
ENDBRANCH   2   3
TORSDOF 8
ENDMDL
MODEL       49
REMARK 921   NORMALIZED FREE ENERGY PREDICTED BY IDOCK:   -5.49 KCAL/MOL
REMARK 922        TOTAL FREE ENERGY PREDICTED BY IDOCK:   -9.27 KCAL/MOL
REMARK 923 INTER-LIGAND FREE ENERGY PREDICTED BY IDOCK:   -8.47 KCAL/MOL
REMARK 924 INTRA-LIGAND FREE ENERGY PREDICTED BY IDOCK:   -0.80 KCAL/MOL
REMARK 927      BINDING AFFINITY PREDICTED BY RF-SCORE:    0.00 PKD
ROOT
HETATM    1  C   UNL     1     -10.356  18.521  65.955  1.00  0.00    -0.315 C  
HETATM    2  O   UNL     1     -10.017  17.157  65.699  1.00  0.00    -0.558 OA 
ENDROOT
BRANCH   2   3
HETATM    3  C   UNL     1     -10.612  16.263  66.549  1.00  0.00    -0.256 A  
HETATM    4  C   UNL     1     -11.060  15.068  65.986  1.00  0.00    -0.329 A  
HETATM    5  O   UNL     1     -10.901  14.832  64.648  1.00  0.00    -0.550 OA 
HETATM    6  C   UNL     1     -11.709  14.103  66.752  1.00  0.00    -0.432 A  
HETATM    7  C   UNL     1     -11.919  14.344  68.111  1.00  0.00    -0.320 A  
HETATM    8  H   UNL     1     -11.206  14.018  64.265  1.00  0.00     0.000 HD 
HETATM    9  C   UNL     1     -11.459  15.525  68.705  1.00  0.00    -0.363 A  
HETATM   10  C   UNL     1     -10.782  16.472  67.918  1.00  0.00    -0.337 A  
BRANCH   9  11
HETATM   11  C   UNL     1     -11.747  15.845  70.148  1.00  0.00    -0.334 C  
BRANCH  11  12
HETATM   12  N   UNL     1     -12.312  14.727  70.842  1.00  0.00    -0.295 N  
HETATM   13  C   UNL     1     -13.590  14.763  71.350  1.00  0.00    -0.420 C  
HETATM   14  H   UNL     1     -11.753  13.882  70.963  1.00  0.00     0.000 HD 
HETATM   15  O   UNL     1     -14.342  15.714  71.246  1.00  0.00    -0.521 OA 
BRANCH  13  16
HETATM   16  C   UNL     1     -13.927  13.519  72.128  1.00  0.00    -0.575 C  
BRANCH  16  17
HETATM   17  C   UNL     1     -12.792  12.506  72.171  1.00  0.00    -0.189 C  
BRANCH  17  18
HETATM   18  C   UNL     1     -13.200  11.109  71.680  1.00  0.00    -0.449 C  
BRANCH  18  19
HETATM   19  C   UNL     1     -12.189  10.396  70.772  1.00  0.00    -0.457 C  
BRANCH  19  20
HETATM   20  C   UNL     1     -11.165   9.571  71.505  1.00  0.00    -0.437 C  
HETATM   21  C   UNL     1     -11.139   8.229  71.590  1.00  0.00    -0.326 C  
HETATM   22  C   UNL     1     -12.036   7.269  70.848  1.00  0.00    -0.326 C  
HETATM   23  C   UNL     1     -13.272   6.903  71.667  1.00  0.00    -0.315 C  
HETATM   24  C   UNL     1     -11.253   6.015  70.464  1.00  0.00    -0.363 C  
ENDBRANCH  19  20
ENDBRANCH  18  19
ENDBRANCH  17  18
ENDBRANCH  16  17
ENDBRANCH  13  16
ENDBRANCH  11  12
ENDBRANCH   9  11
ENDBRANCH   2   3
TORSDOF 8
ENDMDL
MODEL       50
REMARK 921   NORMALIZED FREE ENERGY PREDICTED BY IDOCK:   -5.48 KCAL/MOL
REMARK 922        TOTAL FREE ENERGY PREDICTED BY IDOCK:   -9.26 KCAL/MOL
REMARK 923 INTER-LIGAND FREE ENERGY PREDICTED BY IDOCK:   -8.23 KCAL/MOL
REMARK 924 INTRA-LIGAND FREE ENERGY PREDICTED BY IDOCK:   -1.03 KCAL/MOL
REMARK 927      BINDING AFFINITY PREDICTED BY RF-SCORE:    0.00 PKD
ROOT
HETATM    1  C   UNL     1     -10.982  10.817  67.585  1.00  0.00    -0.306 C  
HETATM    2  O   UNL     1     -11.138   9.956  68.715  1.00  0.00    -0.209 OA 
ENDROOT
BRANCH   2   3
HETATM    3  C   UNL     1     -11.780  10.537  69.777  1.00  0.00    -0.281 A  
HETATM    4  C   UNL     1     -12.279   9.675  70.754  1.00  0.00    -0.230 A  
HETATM    5  O   UNL     1     -12.120   8.322  70.627  1.00  0.00    -0.489 OA 
HETATM    6  C   UNL     1     -12.977  10.156  71.858  1.00  0.00    -0.549 A  
HETATM    7  C   UNL     1     -13.186  11.530  71.984  1.00  0.00    -0.443 A  
HETATM    8  H   UNL     1     -12.459   7.736  71.292  1.00  0.00     0.000 HD 
HETATM    9  C   UNL     1     -12.677  12.419  71.029  1.00  0.00    -0.315 A  
HETATM   10  C   UNL     1     -11.951  11.912  69.937  1.00  0.00    -0.398 A  
BRANCH   9  11
HETATM   11  C   UNL     1     -12.960  13.896  71.097  1.00  0.00    -0.318 C  
BRANCH  11  12
HETATM   12  N   UNL     1     -12.537  14.577  69.909  1.00  0.00    -0.536 N  
HETATM   13  C   UNL     1     -11.724  15.685  69.963  1.00  0.00    -0.357 C  
HETATM   14  H   UNL     1     -12.847  14.232  69.001  1.00  0.00     0.000 HD 
HETATM   15  O   UNL     1     -11.288  16.166  70.993  1.00  0.00    -0.387 OA 
BRANCH  13  16
HETATM   16  C   UNL     1     -11.501  16.292  68.604  1.00  0.00    -0.288 C  
BRANCH  16  17
HETATM   17  C   UNL     1     -10.360  17.301  68.573  1.00  0.00    -0.371 C  
BRANCH  17  18
HETATM   18  C   UNL     1      -9.503  17.214  67.302  1.00  0.00    -0.245 C  
BRANCH  18  19
HETATM   19  C   UNL     1     -10.155  16.515  66.102  1.00  0.00    -0.365 C  
BRANCH  19  20
HETATM   20  C   UNL     1      -9.629  15.132  65.822  1.00  0.00    -0.344 C  
HETATM   21  C   UNL     1     -10.334  14.097  65.332  1.00  0.00    -0.384 C  
HETATM   22  C   UNL     1     -11.752  14.146  64.818  1.00  0.00    -0.416 C  
HETATM   23  C   UNL     1     -12.762  13.805  65.911  1.00  0.00    -0.452 C  
HETATM   24  C   UNL     1     -11.907  13.203  63.627  1.00  0.00    -0.549 C  
ENDBRANCH  19  20
ENDBRANCH  18  19
ENDBRANCH  17  18
ENDBRANCH  16  17
ENDBRANCH  13  16
ENDBRANCH  11  12
ENDBRANCH   9  11
ENDBRANCH   2   3
TORSDOF 8
ENDMDL
MODEL       51
REMARK 921   NORMALIZED FREE ENERGY PREDICTED BY IDOCK:   -5.48 KCAL/MOL
REMARK 922        TOTAL FREE ENERGY PREDICTED BY IDOCK:   -9.26 KCAL/MOL
REMARK 923 INTER-LIGAND FREE ENERGY PREDICTED BY IDOCK:   -8.42 KCAL/MOL
REMARK 924 INTRA-LIGAND FREE ENERGY PREDICTED BY IDOCK:   -0.84 KCAL/MOL
REMARK 927      BINDING AFFINITY PREDICTED BY RF-SCORE:    0.00 PKD
ROOT
HETATM    1  C   UNL     1     -14.194  14.505  72.076  1.00  0.00    -0.544 C  
HETATM    2  O   UNL     1     -13.453  13.341  72.448  1.00  0.00    -0.549 OA 
ENDROOT
BRANCH   2   3
HETATM    3  C   UNL     1     -12.842  12.707  71.398  1.00  0.00    -0.261 A  
HETATM    4  C   UNL     1     -12.892  11.313  71.396  1.00  0.00    -0.410 A  
HETATM    5  O   UNL     1     -13.524  10.643  72.407  1.00  0.00    -0.603 OA 
HETATM    6  C   UNL     1     -12.276  10.566  70.395  1.00  0.00    -0.415 A  
HETATM    7  C   UNL     1     -11.590  11.230  69.378  1.00  0.00    -0.390 A  
HETATM    8  H   UNL     1     -13.558   9.694  72.406  1.00  0.00     0.000 HD 
HETATM    9  C   UNL     1     -11.544  12.629  69.344  1.00  0.00    -0.369 A  
HETATM   10  C   UNL     1     -12.197  13.363  70.350  1.00  0.00    -0.415 A  
BRANCH   9  11
HETATM   11  C   UNL     1     -10.741  13.367  68.306  1.00  0.00    -0.258 C  
BRANCH  11  12
HETATM   12  N   UNL     1     -10.799  14.786  68.493  1.00  0.00    -0.244 N  
HETATM   13  C   UNL     1     -10.688  15.659  67.436  1.00  0.00    -0.309 C  
HETATM   14  H   UNL     1     -10.926  15.159  69.434  1.00  0.00     0.000 HD 
HETATM   15  O   UNL     1     -10.550  15.317  66.276  1.00  0.00    -0.294 OA 
BRANCH  13  16
HETATM   16  C   UNL     1     -10.670  17.095  67.884  1.00  0.00    -0.355 C  
BRANCH  16  17
HETATM   17  C   UNL     1     -10.368  18.076  66.760  1.00  0.00    -0.373 C  
BRANCH  17  18
HETATM   18  C   UNL     1     -10.638  19.540  67.137  1.00  0.00    -0.605 C  
BRANCH  18  19
HETATM   19  C   UNL     1      -9.396  20.405  67.392  1.00  0.00    -0.536 C  
BRANCH  19  20
HETATM   20  C   UNL     1      -8.128  19.873  66.779  1.00  0.00    -0.349 C  
HETATM   21  C   UNL     1      -7.146  19.219  67.424  1.00  0.00    -0.225 C  
HETATM   22  C   UNL     1      -7.178  18.749  68.858  1.00  0.00    -0.333 C  
HETATM   23  C   UNL     1      -6.574  19.782  69.806  1.00  0.00    -0.357 C  
HETATM   24  C   UNL     1      -6.452  17.411  68.983  1.00  0.00    -0.226 C  
ENDBRANCH  19  20
ENDBRANCH  18  19
ENDBRANCH  17  18
ENDBRANCH  16  17
ENDBRANCH  13  16
ENDBRANCH  11  12
ENDBRANCH   9  11
ENDBRANCH   2   3
TORSDOF 8
ENDMDL
MODEL       52
REMARK 921   NORMALIZED FREE ENERGY PREDICTED BY IDOCK:   -5.46 KCAL/MOL
REMARK 922        TOTAL FREE ENERGY PREDICTED BY IDOCK:   -9.23 KCAL/MOL
REMARK 923 INTER-LIGAND FREE ENERGY PREDICTED BY IDOCK:   -8.39 KCAL/MOL
REMARK 924 INTRA-LIGAND FREE ENERGY PREDICTED BY IDOCK:   -0.84 KCAL/MOL
REMARK 927      BINDING AFFINITY PREDICTED BY RF-SCORE:    0.00 PKD
ROOT
HETATM    1  C   UNL     1     -11.236  11.426  69.206  1.00  0.00    -0.277 C  
HETATM    2  O   UNL     1     -11.336  10.460  68.158  1.00  0.00    -0.289 OA 
ENDROOT
BRANCH   2   3
HETATM    3  C   UNL     1     -11.144  10.974  66.903  1.00  0.00    -0.213 A  
HETATM    4  C   UNL     1     -10.481  10.157  65.987  1.00  0.00    -0.095 A  
HETATM    5  O   UNL     1     -10.054   8.912  66.355  1.00  0.00    -0.288 OA 
HETATM    6  C   UNL     1     -10.205  10.593  64.693  1.00  0.00    -0.404 A  
HETATM    7  C   UNL     1     -10.595  11.877  64.311  1.00  0.00    -0.381 A  
HETATM    8  H   UNL     1      -9.603   8.355  65.732  1.00  0.00     0.000 HD 
HETATM    9  C   UNL     1     -11.282  12.709  65.204  1.00  0.00    -0.336 A  
HETATM   10  C   UNL     1     -11.575  12.238  66.496  1.00  0.00    -0.440 A  
BRANCH   9  11
HETATM   11  C   UNL     1     -11.639  14.127  64.845  1.00  0.00    -0.379 C  
BRANCH  11  12
HETATM   12  N   UNL     1     -10.938  15.077  65.656  1.00  0.00    -0.342 N  
HETATM   13  C   UNL     1     -10.870  16.408  65.314  1.00  0.00    -0.258 C  
HETATM   14  H   UNL     1     -10.478  14.759  66.509  1.00  0.00     0.000 HD 
HETATM   15  O   UNL     1     -11.396  16.890  64.328  1.00  0.00    -1.202 OA 
BRANCH  13  16
HETATM   16  C   UNL     1      -9.995  17.192  66.254  1.00  0.00    -0.316 C  
BRANCH  16  17
HETATM   17  C   UNL     1     -10.775  17.920  67.341  1.00  0.00    -0.306 C  
BRANCH  17  18
HETATM   18  C   UNL     1     -10.489  17.392  68.755  1.00  0.00    -0.333 C  
BRANCH  18  19
HETATM   19  C   UNL     1     -11.309  16.171  69.192  1.00  0.00    -0.323 C  
BRANCH  19  20
HETATM   20  C   UNL     1     -10.899  15.585  70.517  1.00  0.00    -0.353 C  
HETATM   21  C   UNL     1     -11.677  14.857  71.338  1.00  0.00    -0.387 C  
HETATM   22  C   UNL     1     -13.065  14.348  71.036  1.00  0.00    -0.417 C  
HETATM   23  C   UNL     1     -14.140  15.317  71.522  1.00  0.00    -0.625 C  
HETATM   24  C   UNL     1     -13.260  12.968  71.660  1.00  0.00    -0.426 C  
ENDBRANCH  19  20
ENDBRANCH  18  19
ENDBRANCH  17  18
ENDBRANCH  16  17
ENDBRANCH  13  16
ENDBRANCH  11  12
ENDBRANCH   9  11
ENDBRANCH   2   3
TORSDOF 8
ENDMDL
MODEL       53
REMARK 921   NORMALIZED FREE ENERGY PREDICTED BY IDOCK:   -5.46 KCAL/MOL
REMARK 922        TOTAL FREE ENERGY PREDICTED BY IDOCK:   -9.22 KCAL/MOL
REMARK 923 INTER-LIGAND FREE ENERGY PREDICTED BY IDOCK:   -7.42 KCAL/MOL
REMARK 924 INTRA-LIGAND FREE ENERGY PREDICTED BY IDOCK:   -1.80 KCAL/MOL
REMARK 927      BINDING AFFINITY PREDICTED BY RF-SCORE:    0.00 PKD
ROOT
HETATM    1  C   UNL     1     -11.753  15.874  71.002  1.00  0.00    -0.432 C  
HETATM    2  O   UNL     1     -12.950  15.104  70.880  1.00  0.00    -0.379 OA 
ENDROOT
BRANCH   2   3
HETATM    3  C   UNL     1     -12.743  13.750  70.836  1.00  0.00    -0.323 A  
HETATM    4  C   UNL     1     -13.441  12.980  71.766  1.00  0.00    -0.314 A  
HETATM    5  O   UNL     1     -14.281  13.576  72.665  1.00  0.00    -0.751 OA 
HETATM    6  C   UNL     1     -13.279  11.598  71.831  1.00  0.00    -0.475 A  
HETATM    7  C   UNL     1     -12.394  10.976  70.950  1.00  0.00    -0.503 A  
HETATM    8  H   UNL     1     -14.757  13.052  73.298  1.00  0.00     0.000 HD 
HETATM    9  C   UNL     1     -11.698  11.723  69.992  1.00  0.00    -0.386 A  
HETATM   10  C   UNL     1     -11.898  13.113  69.926  1.00  0.00    -0.378 A  
BRANCH   9  11
HETATM   11  C   UNL     1     -10.677  11.088  69.087  1.00  0.00    -0.234 C  
BRANCH  11  12
HETATM   12  N   UNL     1      -9.620  11.996  68.751  1.00  0.00    -0.398 N  
HETATM   13  C   UNL     1      -8.856  11.829  67.620  1.00  0.00    -0.162 C  
HETATM   14  H   UNL     1      -9.431  12.788  69.366  1.00  0.00     0.000 HD 
HETATM   15  O   UNL     1      -9.011  10.929  66.815  1.00  0.00    -0.146 OA 
BRANCH  13  16
HETATM   16  C   UNL     1      -7.743  12.838  67.532  1.00  0.00    -0.168 C  
BRANCH  16  17
HETATM   17  C   UNL     1      -8.083  14.171  68.184  1.00  0.00    -0.148 C  
BRANCH  17  18
HETATM   18  C   UNL     1      -7.933  15.371  67.237  1.00  0.00    -0.231 C  
BRANCH  18  19
HETATM   19  C   UNL     1      -9.162  15.706  66.381  1.00  0.00    -0.346 C  
BRANCH  19  20
HETATM   20  C   UNL     1     -10.482  15.499  67.074  1.00  0.00    -0.304 C  
HETATM   21  C   UNL     1     -11.473  14.684  66.671  1.00  0.00    -0.363 C  
HETATM   22  C   UNL     1     -11.410  13.698  65.530  1.00  0.00    -0.308 C  
HETATM   23  C   UNL     1     -11.915  14.309  64.226  1.00  0.00    -0.449 C  
HETATM   24  C   UNL     1     -12.206  12.443  65.882  1.00  0.00    -0.220 C  
ENDBRANCH  19  20
ENDBRANCH  18  19
ENDBRANCH  17  18
ENDBRANCH  16  17
ENDBRANCH  13  16
ENDBRANCH  11  12
ENDBRANCH   9  11
ENDBRANCH   2   3
TORSDOF 8
ENDMDL
MODEL       54
REMARK 921   NORMALIZED FREE ENERGY PREDICTED BY IDOCK:   -5.45 KCAL/MOL
REMARK 922        TOTAL FREE ENERGY PREDICTED BY IDOCK:   -9.21 KCAL/MOL
REMARK 923 INTER-LIGAND FREE ENERGY PREDICTED BY IDOCK:   -8.56 KCAL/MOL
REMARK 924 INTRA-LIGAND FREE ENERGY PREDICTED BY IDOCK:   -0.65 KCAL/MOL
REMARK 927      BINDING AFFINITY PREDICTED BY RF-SCORE:    0.00 PKD
ROOT
HETATM    1  C   UNL     1     -11.005  14.905  64.751  1.00  0.00    -0.375 C  
HETATM    2  O   UNL     1     -10.724  16.300  64.881  1.00  0.00    -0.646 OA 
ENDROOT
BRANCH   2   3
HETATM    3  C   UNL     1     -10.531  16.714  66.173  1.00  0.00    -0.285 A  
HETATM    4  C   UNL     1     -10.526  18.092  66.393  1.00  0.00    -0.339 A  
HETATM    5  O   UNL     1     -10.705  18.959  65.351  1.00  0.00    -0.536 OA 
HETATM    6  C   UNL     1     -10.304  18.622  67.662  1.00  0.00    -0.455 A  
HETATM    7  C   UNL     1     -10.078  17.755  68.731  1.00  0.00    -0.381 A  
HETATM    8  H   UNL     1     -10.702  19.896  65.502  1.00  0.00     0.000 HD 
HETATM    9  C   UNL     1     -10.100  16.367  68.540  1.00  0.00    -0.248 A  
HETATM   10  C   UNL     1     -10.352  15.854  67.256  1.00  0.00    -0.293 A  
BRANCH   9  11
HETATM   11  C   UNL     1      -9.775  15.413  69.658  1.00  0.00    -0.246 C  
BRANCH  11  12
HETATM   12  N   UNL     1     -10.940  14.728  70.133  1.00  0.00    -0.432 N  
HETATM   13  C   UNL     1     -11.718  15.241  71.144  1.00  0.00    -0.360 C  
HETATM   14  H   UNL     1     -11.200  13.837  69.710  1.00  0.00     0.000 HD 
HETATM   15  O   UNL     1     -11.504  16.301  71.703  1.00  0.00    -0.401 OA 
BRANCH  13  16
HETATM   16  C   UNL     1     -12.822  14.301  71.545  1.00  0.00    -0.419 C  
BRANCH  16  17
HETATM   17  C   UNL     1     -12.618  12.878  71.041  1.00  0.00    -0.376 C  
BRANCH  17  18
HETATM   18  C   UNL     1     -13.143  11.807  72.008  1.00  0.00    -0.436 C  
BRANCH  18  19
HETATM   19  C   UNL     1     -13.040  10.356  71.518  1.00  0.00    -0.532 C  
BRANCH  19  20
HETATM   20  C   UNL     1     -11.717   9.998  70.896  1.00  0.00    -0.462 C  
HETATM   21  C   UNL     1     -11.169   8.771  70.842  1.00  0.00    -0.320 C  
HETATM   22  C   UNL     1     -11.831   7.479  71.254  1.00  0.00    -0.319 C  
HETATM   23  C   UNL     1     -11.520   7.122  72.706  1.00  0.00    -0.234 C  
HETATM   24  C   UNL     1     -11.400   6.352  70.318  1.00  0.00    -0.468 C  
ENDBRANCH  19  20
ENDBRANCH  18  19
ENDBRANCH  17  18
ENDBRANCH  16  17
ENDBRANCH  13  16
ENDBRANCH  11  12
ENDBRANCH   9  11
ENDBRANCH   2   3
TORSDOF 8
ENDMDL
MODEL       55
REMARK 921   NORMALIZED FREE ENERGY PREDICTED BY IDOCK:   -5.45 KCAL/MOL
REMARK 922        TOTAL FREE ENERGY PREDICTED BY IDOCK:   -9.21 KCAL/MOL
REMARK 923 INTER-LIGAND FREE ENERGY PREDICTED BY IDOCK:   -8.39 KCAL/MOL
REMARK 924 INTRA-LIGAND FREE ENERGY PREDICTED BY IDOCK:   -0.82 KCAL/MOL
REMARK 927      BINDING AFFINITY PREDICTED BY RF-SCORE:    0.00 PKD
ROOT
HETATM    1  C   UNL     1     -10.454   7.427  72.952  1.00  0.00    -0.295 C  
HETATM    2  O   UNL     1     -11.789   7.653  72.496  1.00  0.00    -0.311 OA 
ENDROOT
BRANCH   2   3
HETATM    3  C   UNL     1     -11.983   8.879  71.916  1.00  0.00    -0.371 A  
HETATM    4  C   UNL     1     -13.084   9.613  72.357  1.00  0.00    -0.306 A  
HETATM    5  O   UNL     1     -13.912   9.104  73.319  1.00  0.00    -1.164 OA 
HETATM    6  C   UNL     1     -13.394  10.856  71.811  1.00  0.00    -0.413 A  
HETATM    7  C   UNL     1     -12.585  11.373  70.797  1.00  0.00    -0.409 A  
HETATM    8  H   UNL     1     -14.662   9.604  73.619  1.00  0.00     0.000 HD 
HETATM    9  C   UNL     1     -11.461  10.667  70.353  1.00  0.00    -0.422 A  
HETATM   10  C   UNL     1     -11.152   9.426  70.938  1.00  0.00    -0.389 A  
BRANCH   9  11
HETATM   11  C   UNL     1     -10.622  11.162  69.205  1.00  0.00    -0.204 C  
BRANCH  11  12
HETATM   12  N   UNL     1     -11.087  12.423  68.708  1.00  0.00    -0.249 N  
HETATM   13  C   UNL     1     -11.703  12.534  67.483  1.00  0.00    -0.374 C  
HETATM   14  H   UNL     1     -10.958  13.260  69.277  1.00  0.00     0.000 HD 
HETATM   15  O   UNL     1     -11.918  11.597  66.737  1.00  0.00    -0.536 OA 
BRANCH  13  16
HETATM   16  C   UNL     1     -12.007  13.964  67.128  1.00  0.00    -0.455 C  
BRANCH  16  17
HETATM   17  C   UNL     1     -10.859  14.919  67.427  1.00  0.00    -0.304 C  
BRANCH  17  18
HETATM   18  C   UNL     1     -11.284  16.146  68.249  1.00  0.00    -0.343 C  
BRANCH  18  19
HETATM   19  C   UNL     1     -10.315  16.576  69.358  1.00  0.00    -0.298 C  
BRANCH  19  20
HETATM   20  C   UNL     1      -8.865  16.296  69.065  1.00  0.00    -0.243 C  
HETATM   21  C   UNL     1      -7.954  17.188  68.635  1.00  0.00    -0.265 C  
HETATM   22  C   UNL     1      -8.156  18.677  68.504  1.00  0.00    -0.370 C  
HETATM   23  C   UNL     1      -8.616  19.064  67.100  1.00  0.00    -0.298 C  
HETATM   24  C   UNL     1      -6.867  19.411  68.870  1.00  0.00    -0.370 C  
ENDBRANCH  19  20
ENDBRANCH  18  19
ENDBRANCH  17  18
ENDBRANCH  16  17
ENDBRANCH  13  16
ENDBRANCH  11  12
ENDBRANCH   9  11
ENDBRANCH   2   3
TORSDOF 8
ENDMDL
MODEL       56
REMARK 921   NORMALIZED FREE ENERGY PREDICTED BY IDOCK:   -5.44 KCAL/MOL
REMARK 922        TOTAL FREE ENERGY PREDICTED BY IDOCK:   -9.20 KCAL/MOL
REMARK 923 INTER-LIGAND FREE ENERGY PREDICTED BY IDOCK:   -8.44 KCAL/MOL
REMARK 924 INTRA-LIGAND FREE ENERGY PREDICTED BY IDOCK:   -0.75 KCAL/MOL
REMARK 927      BINDING AFFINITY PREDICTED BY RF-SCORE:    0.00 PKD
ROOT
HETATM    1  C   UNL     1     -11.541   6.188  71.780  1.00  0.00    -0.275 C  
HETATM    2  O   UNL     1     -12.611   7.090  72.068  1.00  0.00    -0.295 OA 
ENDROOT
BRANCH   2   3
HETATM    3  C   UNL     1     -12.404   8.367  71.618  1.00  0.00    -0.320 A  
HETATM    4  C   UNL     1     -13.231   9.358  72.147  1.00  0.00    -0.460 A  
HETATM    5  O   UNL     1     -14.193   9.038  73.065  1.00  0.00    -1.107 OA 
HETATM    6  C   UNL     1     -13.129  10.684  71.734  1.00  0.00    -0.571 A  
HETATM    7  C   UNL     1     -12.182  11.024  70.768  1.00  0.00    -0.480 A  
HETATM    8  H   UNL     1     -14.756   9.713  73.425  1.00  0.00     0.000 HD 
HETATM    9  C   UNL     1     -11.324  10.052  70.237  1.00  0.00    -0.376 A  
HETATM   10  C   UNL     1     -11.427   8.725  70.689  1.00  0.00    -0.263 A  
BRANCH   9  11
HETATM   11  C   UNL     1     -10.353  10.376  69.134  1.00  0.00    -0.222 C  
BRANCH  11  12
HETATM   12  N   UNL     1     -10.915  11.279  68.174  1.00  0.00    -0.212 N  
HETATM   13  C   UNL     1     -10.870  11.018  66.824  1.00  0.00    -0.251 C  
HETATM   14  H   UNL     1     -11.359  12.137  68.499  1.00  0.00     0.000 HD 
HETATM   15  O   UNL     1     -10.378  10.018  66.336  1.00  0.00    -0.226 OA 
BRANCH  13  16
HETATM   16  C   UNL     1     -11.425  12.153  66.007  1.00  0.00    -0.427 C  
BRANCH  16  17
HETATM   17  C   UNL     1     -12.135  13.210  66.843  1.00  0.00    -0.377 C  
BRANCH  17  18
HETATM   18  C   UNL     1     -11.470  14.593  66.772  1.00  0.00    -0.371 C  
BRANCH  18  19
HETATM   19  C   UNL     1     -11.523  15.428  68.058  1.00  0.00    -0.333 C  
BRANCH  19  20
HETATM   20  C   UNL     1     -10.212  16.057  68.449  1.00  0.00    -0.236 C  
HETATM   21  C   UNL     1      -9.795  17.293  68.121  1.00  0.00    -0.290 C  
HETATM   22  C   UNL     1     -10.610  18.357  67.427  1.00  0.00    -0.445 C  
HETATM   23  C   UNL     1     -10.418  18.318  65.913  1.00  0.00    -0.324 C  
HETATM   24  C   UNL     1     -10.250  19.733  67.982  1.00  0.00    -0.581 C  
ENDBRANCH  19  20
ENDBRANCH  18  19
ENDBRANCH  17  18
ENDBRANCH  16  17
ENDBRANCH  13  16
ENDBRANCH  11  12
ENDBRANCH   9  11
ENDBRANCH   2   3
TORSDOF 8
ENDMDL
MODEL       57
REMARK 921   NORMALIZED FREE ENERGY PREDICTED BY IDOCK:   -5.39 KCAL/MOL
REMARK 922        TOTAL FREE ENERGY PREDICTED BY IDOCK:   -9.13 KCAL/MOL
REMARK 923 INTER-LIGAND FREE ENERGY PREDICTED BY IDOCK:   -8.17 KCAL/MOL
REMARK 924 INTRA-LIGAND FREE ENERGY PREDICTED BY IDOCK:   -0.95 KCAL/MOL
REMARK 927      BINDING AFFINITY PREDICTED BY RF-SCORE:    0.00 PKD
ROOT
HETATM    1  C   UNL     1     -13.626  13.054  72.139  1.00  0.00    -0.526 C  
HETATM    2  O   UNL     1     -13.822  11.645  72.264  1.00  0.00    -0.060 OA 
ENDROOT
BRANCH   2   3
HETATM    3  C   UNL     1     -12.871  10.888  71.631  1.00  0.00    -0.449 A  
HETATM    4  C   UNL     1     -12.680   9.593  72.113  1.00  0.00    -0.344 A  
HETATM    5  O   UNL     1     -13.420   9.132  73.167  1.00  0.00    -0.899 OA 
HETATM    6  C   UNL     1     -11.715   8.750  71.566  1.00  0.00    -0.377 A  
HETATM    7  C   UNL     1     -10.921   9.217  70.518  1.00  0.00    -0.318 A  
HETATM    8  H   UNL     1     -13.291   8.250  73.494  1.00  0.00     0.000 HD 
HETATM    9  C   UNL     1     -11.107  10.505  70.002  1.00  0.00    -0.376 A  
HETATM   10  C   UNL     1     -12.106  11.329  70.551  1.00  0.00    -0.481 A  
BRANCH   9  11
HETATM   11  C   UNL     1     -10.209  11.062  68.930  1.00  0.00    -0.203 C  
BRANCH  11  12
HETATM   12  N   UNL     1     -10.470  10.470  67.652  1.00  0.00    -0.217 N  
HETATM   13  C   UNL     1      -9.471  10.279  66.726  1.00  0.00    -0.163 C  
HETATM   14  H   UNL     1     -11.421  10.182  67.422  1.00  0.00     0.000 HD 
HETATM   15  O   UNL     1      -8.304  10.573  66.907  1.00  0.00    -0.123 OA 
BRANCH  13  16
HETATM   16  C   UNL     1      -9.998   9.742  65.423  1.00  0.00    -0.302 C  
BRANCH  16  17
HETATM   17  C   UNL     1      -9.310  10.336  64.202  1.00  0.00    -0.336 C  
BRANCH  17  18
HETATM   18  C   UNL     1      -9.994  11.605  63.671  1.00  0.00    -0.406 C  
BRANCH  18  19
HETATM   19  C   UNL     1     -11.493  11.733  63.974  1.00  0.00    -0.444 C  
BRANCH  19  20
HETATM   20  C   UNL     1     -12.071  13.097  63.707  1.00  0.00    -0.563 C  
HETATM   21  C   UNL     1     -11.963  14.176  64.503  1.00  0.00    -0.476 C  
HETATM   22  C   UNL     1     -11.117  14.286  65.748  1.00  0.00    -0.310 C  
HETATM   23  C   UNL     1     -11.910  13.929  67.004  1.00  0.00    -0.447 C  
HETATM   24  C   UNL     1     -10.536  15.694  65.859  1.00  0.00    -0.354 C  
ENDBRANCH  19  20
ENDBRANCH  18  19
ENDBRANCH  17  18
ENDBRANCH  16  17
ENDBRANCH  13  16
ENDBRANCH  11  12
ENDBRANCH   9  11
ENDBRANCH   2   3
TORSDOF 8
ENDMDL
MODEL       58
REMARK 921   NORMALIZED FREE ENERGY PREDICTED BY IDOCK:   -5.38 KCAL/MOL
REMARK 922        TOTAL FREE ENERGY PREDICTED BY IDOCK:   -9.11 KCAL/MOL
REMARK 923 INTER-LIGAND FREE ENERGY PREDICTED BY IDOCK:   -7.70 KCAL/MOL
REMARK 924 INTRA-LIGAND FREE ENERGY PREDICTED BY IDOCK:   -1.41 KCAL/MOL
REMARK 927      BINDING AFFINITY PREDICTED BY RF-SCORE:    0.00 PKD
ROOT
HETATM    1  C   UNL     1     -13.110  15.018  73.049  1.00  0.00    -0.504 C  
HETATM    2  O   UNL     1     -13.385  14.787  71.666  1.00  0.00    -0.317 OA 
ENDROOT
BRANCH   2   3
HETATM    3  C   UNL     1     -13.010  13.547  71.221  1.00  0.00    -0.304 A  
HETATM    4  C   UNL     1     -12.343  13.498  69.997  1.00  0.00    -0.249 A  
HETATM    5  O   UNL     1     -12.092  14.647  69.300  1.00  0.00    -0.406 OA 
HETATM    6  C   UNL     1     -11.947  12.287  69.435  1.00  0.00    -0.318 A  
HETATM    7  C   UNL     1     -12.231  11.099  70.110  1.00  0.00    -0.417 A  
HETATM    8  H   UNL     1     -11.637  14.614  68.467  1.00  0.00     0.000 HD 
HETATM    9  C   UNL     1     -12.880  11.123  71.351  1.00  0.00    -0.544 A  
HETATM   10  C   UNL     1     -13.246  12.358  71.912  1.00  0.00    -0.486 A  
BRANCH   9  11
HETATM   11  C   UNL     1     -13.272   9.853  72.059  1.00  0.00    -0.456 C  
BRANCH  11  12
HETATM   12  N   UNL     1     -12.913   8.688  71.307  1.00  0.00    -0.496 N  
HETATM   13  C   UNL     1     -12.094   7.715  71.831  1.00  0.00    -0.298 C  
HETATM   14  H   UNL     1     -13.273   8.577  70.359  1.00  0.00     0.000 HD 
HETATM   15  O   UNL     1     -11.626   7.744  72.954  1.00  0.00    -0.355 OA 
BRANCH  13  16
HETATM   16  C   UNL     1     -11.769   6.643  70.826  1.00  0.00    -0.445 C  
BRANCH  16  17
HETATM   17  C   UNL     1     -10.890   7.133  69.683  1.00  0.00    -0.254 C  
BRANCH  17  18
HETATM   18  C   UNL     1     -11.021   6.289  68.407  1.00  0.00    -0.409 C  
BRANCH  18  19
HETATM   19  C   UNL     1     -10.957   7.062  67.083  1.00  0.00    -0.393 C  
BRANCH  19  20
HETATM   20  C   UNL     1      -9.575   7.512  66.688  1.00  0.00    -0.263 C  
HETATM   21  C   UNL     1      -9.087   8.761  66.787  1.00  0.00    -0.180 C  
HETATM   22  C   UNL     1      -9.763   9.935  67.452  1.00  0.00    -0.199 C  
HETATM   23  C   UNL     1     -10.579  10.756  66.455  1.00  0.00    -0.279 C  
HETATM   24  C   UNL     1      -8.723  10.809  68.148  1.00  0.00    -0.130 C  
ENDBRANCH  19  20
ENDBRANCH  18  19
ENDBRANCH  17  18
ENDBRANCH  16  17
ENDBRANCH  13  16
ENDBRANCH  11  12
ENDBRANCH   9  11
ENDBRANCH   2   3
TORSDOF 8
ENDMDL
MODEL       59
REMARK 921   NORMALIZED FREE ENERGY PREDICTED BY IDOCK:   -5.37 KCAL/MOL
REMARK 922        TOTAL FREE ENERGY PREDICTED BY IDOCK:   -9.10 KCAL/MOL
REMARK 923 INTER-LIGAND FREE ENERGY PREDICTED BY IDOCK:   -8.34 KCAL/MOL
REMARK 924 INTRA-LIGAND FREE ENERGY PREDICTED BY IDOCK:   -0.76 KCAL/MOL
REMARK 927      BINDING AFFINITY PREDICTED BY RF-SCORE:    0.00 PKD
ROOT
HETATM    1  C   UNL     1     -13.518  13.085  72.098  1.00  0.00    -0.542 C  
HETATM    2  O   UNL     1     -13.753  11.681  72.223  1.00  0.00    -0.183 OA 
ENDROOT
BRANCH   2   3
HETATM    3  C   UNL     1     -12.868  10.902  71.525  1.00  0.00    -0.454 A  
HETATM    4  C   UNL     1     -12.726   9.582  71.953  1.00  0.00    -0.411 A  
HETATM    5  O   UNL     1     -13.445   9.121  73.020  1.00  0.00    -0.845 OA 
HETATM    6  C   UNL     1     -11.829   8.712  71.336  1.00  0.00    -0.352 A  
HETATM    7  C   UNL     1     -11.055   9.177  70.272  1.00  0.00    -0.272 A  
HETATM    8  H   UNL     1     -13.349   8.222  73.311  1.00  0.00     0.000 HD 
HETATM    9  C   UNL     1     -11.195  10.491  69.809  1.00  0.00    -0.361 A  
HETATM   10  C   UNL     1     -12.126  11.342  70.429  1.00  0.00    -0.473 A  
BRANCH   9  11
HETATM   11  C   UNL     1     -10.314  11.040  68.719  1.00  0.00    -0.199 C  
BRANCH  11  12
HETATM   12  N   UNL     1     -10.600  12.416  68.442  1.00  0.00    -0.231 N  
HETATM   13  C   UNL     1     -11.458  12.786  67.432  1.00  0.00    -0.340 C  
HETATM   14  H   UNL     1     -10.157  13.140  69.007  1.00  0.00     0.000 HD 
HETATM   15  O   UNL     1     -12.048  12.001  66.712  1.00  0.00    -0.613 OA 
BRANCH  13  16
HETATM   16  C   UNL     1     -11.522  14.279  67.258  1.00  0.00    -0.371 C  
BRANCH  16  17
HETATM   17  C   UNL     1     -11.497  15.043  68.575  1.00  0.00    -0.335 C  
BRANCH  17  18
HETATM   18  C   UNL     1     -11.065  16.509  68.423  1.00  0.00    -0.333 C  
BRANCH  18  19
HETATM   19  C   UNL     1      -9.583  16.801  68.691  1.00  0.00    -0.255 C  
BRANCH  19  20
HETATM   20  C   UNL     1      -8.735  16.922  67.453  1.00  0.00    -0.213 C  
HETATM   21  C   UNL     1      -8.450  18.059  66.793  1.00  0.00    -0.274 C  
HETATM   22  C   UNL     1      -8.790  19.460  67.239  1.00  0.00    -0.342 C  
HETATM   23  C   UNL     1     -10.126  19.928  66.665  1.00  0.00    -0.598 C  
HETATM   24  C   UNL     1      -7.668  20.419  66.845  1.00  0.00    -0.346 C  
ENDBRANCH  19  20
ENDBRANCH  18  19
ENDBRANCH  17  18
ENDBRANCH  16  17
ENDBRANCH  13  16
ENDBRANCH  11  12
ENDBRANCH   9  11
ENDBRANCH   2   3
TORSDOF 8
ENDMDL
MODEL       60
REMARK 921   NORMALIZED FREE ENERGY PREDICTED BY IDOCK:   -5.36 KCAL/MOL
REMARK 922        TOTAL FREE ENERGY PREDICTED BY IDOCK:   -9.09 KCAL/MOL
REMARK 923 INTER-LIGAND FREE ENERGY PREDICTED BY IDOCK:   -8.22 KCAL/MOL
REMARK 924 INTRA-LIGAND FREE ENERGY PREDICTED BY IDOCK:   -0.87 KCAL/MOL
REMARK 927      BINDING AFFINITY PREDICTED BY RF-SCORE:    0.00 PKD
ROOT
HETATM    1  C   UNL     1      -8.945   9.004  70.287  1.00  0.00    -0.198 C  
HETATM    2  O   UNL     1     -10.228   8.825  69.684  1.00  0.00    -0.198 OA 
ENDROOT
BRANCH   2   3
HETATM    3  C   UNL     1     -11.281   9.057  70.529  1.00  0.00    -0.260 A  
HETATM    4  C   UNL     1     -11.958   7.935  71.007  1.00  0.00    -0.252 A  
HETATM    5  O   UNL     1     -11.568   6.680  70.629  1.00  0.00    -0.338 OA 
HETATM    6  C   UNL     1     -13.064   8.058  71.844  1.00  0.00    -0.336 A  
HETATM    7  C   UNL     1     -13.504   9.331  72.206  1.00  0.00    -0.548 A  
HETATM    8  H   UNL     1     -12.029   5.916  70.955  1.00  0.00     0.000 HD 
HETATM    9  C   UNL     1     -12.828  10.473  71.759  1.00  0.00    -0.559 A  
HETATM   10  C   UNL     1     -11.698  10.324  70.937  1.00  0.00    -0.472 A  
BRANCH   9  11
HETATM   11  C   UNL     1     -13.332  11.858  72.066  1.00  0.00    -0.320 C  
BRANCH  11  12
HETATM   12  N   UNL     1     -12.703  12.850  71.245  1.00  0.00    -0.340 N  
HETATM   13  C   UNL     1     -12.648  14.171  71.624  1.00  0.00    -0.337 C  
HETATM   14  H   UNL     1     -12.287  12.570  70.357  1.00  0.00     0.000 HD 
HETATM   15  O   UNL     1     -13.099  14.605  72.668  1.00  0.00    -0.390 OA 
BRANCH  13  16
HETATM   16  C   UNL     1     -12.038  15.043  70.559  1.00  0.00    -0.379 C  
BRANCH  16  17
HETATM   17  C   UNL     1     -11.402  14.254  69.423  1.00  0.00    -0.325 C  
BRANCH  17  18
HETATM   18  C   UNL     1     -11.073  15.112  68.192  1.00  0.00    -0.306 C  
BRANCH  18  19
HETATM   19  C   UNL     1     -11.528  14.546  66.841  1.00  0.00    -0.375 C  
BRANCH  19  20
HETATM   20  C   UNL     1     -11.802  13.066  66.843  1.00  0.00    -0.442 C  
HETATM   21  C   UNL     1     -11.695  12.236  65.790  1.00  0.00    -0.445 C  
HETATM   22  C   UNL     1     -11.134  12.582  64.433  1.00  0.00    -0.383 C  
HETATM   23  C   UNL     1     -12.228  13.030  63.466  1.00  0.00    -0.580 C  
HETATM   24  C   UNL     1     -10.368  11.389  63.866  1.00  0.00    -0.434 C  
ENDBRANCH  19  20
ENDBRANCH  18  19
ENDBRANCH  17  18
ENDBRANCH  16  17
ENDBRANCH  13  16
ENDBRANCH  11  12
ENDBRANCH   9  11
ENDBRANCH   2   3
TORSDOF 8
ENDMDL
MODEL       61
REMARK 921   NORMALIZED FREE ENERGY PREDICTED BY IDOCK:   -5.34 KCAL/MOL
REMARK 922        TOTAL FREE ENERGY PREDICTED BY IDOCK:   -9.06 KCAL/MOL
REMARK 923 INTER-LIGAND FREE ENERGY PREDICTED BY IDOCK:   -8.00 KCAL/MOL
REMARK 924 INTRA-LIGAND FREE ENERGY PREDICTED BY IDOCK:   -1.06 KCAL/MOL
REMARK 927      BINDING AFFINITY PREDICTED BY RF-SCORE:    0.00 PKD
ROOT
HETATM    1  C   UNL     1      -8.435   9.251  70.816  1.00  0.00    -0.195 C  
HETATM    2  O   UNL     1      -9.385   8.457  70.102  1.00  0.00    -0.160 OA 
ENDROOT
BRANCH   2   3
HETATM    3  C   UNL     1     -10.633   8.434  70.667  1.00  0.00    -0.208 A  
HETATM    4  C   UNL     1     -11.292   7.205  70.676  1.00  0.00    -0.292 A  
HETATM    5  O   UNL     1     -10.696   6.097  70.138  1.00  0.00    -0.248 OA 
HETATM    6  C   UNL     1     -12.578   7.075  71.194  1.00  0.00    -0.387 A  
HETATM    7  C   UNL     1     -13.220   8.202  71.709  1.00  0.00    -0.365 A  
HETATM    8  H   UNL     1     -11.145   5.260  70.145  1.00  0.00     0.000 HD 
HETATM    9  C   UNL     1     -12.571   9.443  71.732  1.00  0.00    -0.470 A  
HETATM   10  C   UNL     1     -11.263   9.544  71.228  1.00  0.00    -0.452 A  
BRANCH   9  11
HETATM   11  C   UNL     1     -13.272  10.689  72.204  1.00  0.00    -0.273 C  
BRANCH  11  12
HETATM   12  N   UNL     1     -12.889  11.840  71.441  1.00  0.00    -0.386 N  
HETATM   13  C   UNL     1     -13.266  13.110  71.811  1.00  0.00    -0.403 C  
HETATM   14  H   UNL     1     -12.322  11.715  70.603  1.00  0.00     0.000 HD 
HETATM   15  O   UNL     1     -13.928  13.368  72.799  1.00  0.00    -0.724 OA 
BRANCH  13  16
HETATM   16  C   UNL     1     -12.841  14.145  70.804  1.00  0.00    -0.378 C  
BRANCH  16  17
HETATM   17  C   UNL     1     -12.010  15.269  71.407  1.00  0.00    -0.428 C  
BRANCH  17  18
HETATM   18  C   UNL     1     -11.198  16.054  70.366  1.00  0.00    -0.401 C  
BRANCH  18  19
HETATM   19  C   UNL     1     -11.643  15.889  68.907  1.00  0.00    -0.392 C  
BRANCH  19  20
HETATM   20  C   UNL     1     -10.566  15.400  67.976  1.00  0.00    -0.263 C  
HETATM   21  C   UNL     1     -10.592  14.264  67.256  1.00  0.00    -0.278 C  
HETATM   22  C   UNL     1     -11.764  13.325  67.113  1.00  0.00    -0.425 C  
HETATM   23  C   UNL     1     -11.718  12.202  68.147  1.00  0.00    -0.402 C  
HETATM   24  C   UNL     1     -11.803  12.753  65.698  1.00  0.00    -0.472 C  
ENDBRANCH  19  20
ENDBRANCH  18  19
ENDBRANCH  17  18
ENDBRANCH  16  17
ENDBRANCH  13  16
ENDBRANCH  11  12
ENDBRANCH   9  11
ENDBRANCH   2   3
TORSDOF 8
ENDMDL
MODEL       62
REMARK 921   NORMALIZED FREE ENERGY PREDICTED BY IDOCK:   -5.33 KCAL/MOL
REMARK 922        TOTAL FREE ENERGY PREDICTED BY IDOCK:   -9.04 KCAL/MOL
REMARK 923 INTER-LIGAND FREE ENERGY PREDICTED BY IDOCK:   -7.72 KCAL/MOL
REMARK 924 INTRA-LIGAND FREE ENERGY PREDICTED BY IDOCK:   -1.32 KCAL/MOL
REMARK 927      BINDING AFFINITY PREDICTED BY RF-SCORE:    0.00 PKD
ROOT
HETATM    1  C   UNL     1     -11.193   6.440  70.029  1.00  0.00    -0.411 C  
HETATM    2  O   UNL     1     -10.258   7.520  70.047  1.00  0.00    -0.206 OA 
ENDROOT
BRANCH   2   3
HETATM    3  C   UNL     1     -10.810   8.743  69.773  1.00  0.00    -0.193 A  
HETATM    4  C   UNL     1     -10.548   9.278  68.511  1.00  0.00    -0.183 A  
HETATM    5  O   UNL     1      -9.774   8.592  67.617  1.00  0.00    -0.148 OA 
HETATM    6  C   UNL     1     -11.031  10.531  68.140  1.00  0.00    -0.330 A  
HETATM    7  C   UNL     1     -11.788  11.265  69.054  1.00  0.00    -0.421 A  
HETATM    8  H   UNL     1      -9.596   8.956  66.758  1.00  0.00     0.000 HD 
HETATM    9  C   UNL     1     -12.083  10.741  70.319  1.00  0.00    -0.433 A  
HETATM   10  C   UNL     1     -11.608   9.463  70.662  1.00  0.00    -0.330 A  
BRANCH   9  11
HETATM   11  C   UNL     1     -12.825  11.547  71.352  1.00  0.00    -0.384 C  
BRANCH  11  12
HETATM   12  N   UNL     1     -12.647  12.956  71.161  1.00  0.00    -0.344 N  
HETATM   13  C   UNL     1     -13.447  13.877  71.795  1.00  0.00    -0.384 C  
HETATM   14  H   UNL     1     -11.908  13.284  70.538  1.00  0.00     0.000 HD 
HETATM   15  O   UNL     1     -14.343  13.591  72.567  1.00  0.00    -0.713 OA 
BRANCH  13  16
HETATM   16  C   UNL     1     -13.145  15.286  71.360  1.00  0.00    -0.529 C  
BRANCH  16  17
HETATM   17  C   UNL     1     -12.406  15.364  70.032  1.00  0.00    -0.368 C  
BRANCH  17  18
HETATM   18  C   UNL     1     -11.161  16.262  70.077  1.00  0.00    -0.351 C  
BRANCH  18  19
HETATM   19  C   UNL     1     -10.475  16.524  68.729  1.00  0.00    -0.309 C  
BRANCH  19  20
HETATM   20  C   UNL     1      -9.580  15.409  68.257  1.00  0.00    -0.205 C  
HETATM   21  C   UNL     1      -9.822  14.576  67.229  1.00  0.00    -0.236 C  
HETATM   22  C   UNL     1     -10.961  14.679  66.245  1.00  0.00    -0.327 C  
HETATM   23  C   UNL     1     -12.166  13.851  66.685  1.00  0.00    -0.465 C  
HETATM   24  C   UNL     1     -10.490  14.251  64.857  1.00  0.00    -0.454 C  
ENDBRANCH  19  20
ENDBRANCH  18  19
ENDBRANCH  17  18
ENDBRANCH  16  17
ENDBRANCH  13  16
ENDBRANCH  11  12
ENDBRANCH   9  11
ENDBRANCH   2   3
TORSDOF 8
ENDMDL
MODEL       63
REMARK 921   NORMALIZED FREE ENERGY PREDICTED BY IDOCK:   -5.32 KCAL/MOL
REMARK 922        TOTAL FREE ENERGY PREDICTED BY IDOCK:   -9.03 KCAL/MOL
REMARK 923 INTER-LIGAND FREE ENERGY PREDICTED BY IDOCK:   -8.01 KCAL/MOL
REMARK 924 INTRA-LIGAND FREE ENERGY PREDICTED BY IDOCK:   -1.02 KCAL/MOL
REMARK 927      BINDING AFFINITY PREDICTED BY RF-SCORE:    0.00 PKD
ROOT
HETATM    1  C   UNL     1     -14.289   8.364  72.054  1.00  0.00    -0.464 C  
HETATM    2  O   UNL     1     -13.432   9.406  72.525  1.00  0.00    -0.455 OA 
ENDROOT
BRANCH   2   3
HETATM    3  C   UNL     1     -12.736  10.048  71.535  1.00  0.00    -0.429 A  
HETATM    4  C   UNL     1     -12.847  11.438  71.494  1.00  0.00    -0.403 A  
HETATM    5  O   UNL     1     -13.622  12.096  72.409  1.00  0.00    -0.594 OA 
HETATM    6  C   UNL     1     -12.209  12.189  70.509  1.00  0.00    -0.392 A  
HETATM    7  C   UNL     1     -11.448  11.532  69.541  1.00  0.00    -0.378 A  
HETATM    8  H   UNL     1     -13.697  13.043  72.381  1.00  0.00     0.000 HD 
HETATM    9  C   UNL     1     -11.303  10.139  69.573  1.00  0.00    -0.260 A  
HETATM   10  C   UNL     1     -11.933   9.405  70.592  1.00  0.00    -0.232 A  
BRANCH   9  11
HETATM   11  C   UNL     1     -10.558   9.400  68.493  1.00  0.00    -0.197 C  
BRANCH  11  12
HETATM   12  N   UNL     1     -10.637  10.074  67.231  1.00  0.00    -0.258 N  
HETATM   13  C   UNL     1     -10.031   9.570  66.104  1.00  0.00    -0.272 C  
HETATM   14  H   UNL     1     -11.155  10.950  67.167  1.00  0.00     0.000 HD 
HETATM   15  O   UNL     1      -9.404   8.527  66.071  1.00  0.00    -0.212 OA 
BRANCH  13  16
HETATM   16  C   UNL     1     -10.158  10.498  64.927  1.00  0.00    -0.403 C  
BRANCH  16  17
HETATM   17  C   UNL     1     -10.568  11.913  65.314  1.00  0.00    -0.320 C  
BRANCH  17  18
HETATM   18  C   UNL     1     -12.008  12.263  64.913  1.00  0.00    -0.420 C  
BRANCH  18  19
HETATM   19  C   UNL     1     -12.514  13.638  65.369  1.00  0.00    -0.537 C  
BRANCH  19  20
HETATM   20  C   UNL     1     -11.817  14.806  64.724  1.00  0.00    -0.425 C  
HETATM   21  C   UNL     1     -10.881  15.586  65.293  1.00  0.00    -0.425 C  
HETATM   22  C   UNL     1     -10.227  15.363  66.634  1.00  0.00    -0.281 C  
HETATM   23  C   UNL     1     -10.958  16.105  67.751  1.00  0.00    -0.293 C  
HETATM   24  C   UNL     1      -8.761  15.787  66.576  1.00  0.00    -0.354 C  
ENDBRANCH  19  20
ENDBRANCH  18  19
ENDBRANCH  17  18
ENDBRANCH  16  17
ENDBRANCH  13  16
ENDBRANCH  11  12
ENDBRANCH   9  11
ENDBRANCH   2   3
TORSDOF 8
ENDMDL
MODEL       64
REMARK 921   NORMALIZED FREE ENERGY PREDICTED BY IDOCK:   -5.32 KCAL/MOL
REMARK 922        TOTAL FREE ENERGY PREDICTED BY IDOCK:   -9.03 KCAL/MOL
REMARK 923 INTER-LIGAND FREE ENERGY PREDICTED BY IDOCK:   -8.18 KCAL/MOL
REMARK 924 INTRA-LIGAND FREE ENERGY PREDICTED BY IDOCK:   -0.84 KCAL/MOL
REMARK 927      BINDING AFFINITY PREDICTED BY RF-SCORE:    0.00 PKD
ROOT
HETATM    1  C   UNL     1      -8.527  15.895  66.392  1.00  0.00    -0.313 C  
HETATM    2  O   UNL     1      -9.769  16.244  65.778  1.00  0.00    -0.401 OA 
ENDROOT
BRANCH   2   3
HETATM    3  C   UNL     1     -10.567  15.171  65.479  1.00  0.00    -0.366 A  
HETATM    4  C   UNL     1     -11.498  15.350  64.456  1.00  0.00    -0.311 A  
HETATM    5  O   UNL     1     -11.586  16.550  63.805  1.00  0.00    -1.617 OA 
HETATM    6  C   UNL     1     -12.382  14.337  64.093  1.00  0.00    -0.361 A  
HETATM    7  C   UNL     1     -12.336  13.120  64.774  1.00  0.00    -0.477 A  
HETATM    8  H   UNL     1     -12.220  16.671  63.108  1.00  0.00     0.000 HD 
HETATM    9  C   UNL     1     -11.395  12.906  65.790  1.00  0.00    -0.349 A  
HETATM   10  C   UNL     1     -10.495  13.934  66.120  1.00  0.00    -0.297 A  
BRANCH   9  11
HETATM   11  C   UNL     1     -11.381  11.635  66.595  1.00  0.00    -0.270 C  
BRANCH  11  12
HETATM   12  N   UNL     1     -11.540  11.887  67.997  1.00  0.00    -0.325 N  
HETATM   13  C   UNL     1     -11.300  10.913  68.938  1.00  0.00    -0.288 C  
HETATM   14  H   UNL     1     -11.839  12.812  68.305  1.00  0.00     0.000 HD 
HETATM   15  O   UNL     1     -10.927   9.784  68.676  1.00  0.00    -0.213 OA 
BRANCH  13  16
HETATM   16  C   UNL     1     -11.636  11.373  70.331  1.00  0.00    -0.267 C  
BRANCH  16  17
HETATM   17  C   UNL     1     -13.030  10.961  70.784  1.00  0.00    -0.308 C  
BRANCH  17  18
HETATM   18  C   UNL     1     -13.025   9.824  71.817  1.00  0.00    -0.536 C  
BRANCH  18  19
HETATM   19  C   UNL     1     -12.652   8.435  71.281  1.00  0.00    -0.234 C  
BRANCH  19  20
HETATM   20  C   UNL     1     -12.033   7.517  72.301  1.00  0.00    -0.303 C  
HETATM   21  C   UNL     1     -10.718   7.363  72.539  1.00  0.00    -0.315 C  
HETATM   22  C   UNL     1      -9.601   8.185  71.945  1.00  0.00    -0.264 C  
HETATM   23  C   UNL     1      -9.043   7.547  70.675  1.00  0.00    -0.155 C  
HETATM   24  C   UNL     1      -8.495   8.385  72.979  1.00  0.00    -0.209 C  
ENDBRANCH  19  20
ENDBRANCH  18  19
ENDBRANCH  17  18
ENDBRANCH  16  17
ENDBRANCH  13  16
ENDBRANCH  11  12
ENDBRANCH   9  11
ENDBRANCH   2   3
TORSDOF 8
ENDMDL
MODEL       65
REMARK 921   NORMALIZED FREE ENERGY PREDICTED BY IDOCK:   -5.32 KCAL/MOL
REMARK 922        TOTAL FREE ENERGY PREDICTED BY IDOCK:   -9.02 KCAL/MOL
REMARK 923 INTER-LIGAND FREE ENERGY PREDICTED BY IDOCK:   -7.76 KCAL/MOL
REMARK 924 INTRA-LIGAND FREE ENERGY PREDICTED BY IDOCK:   -1.26 KCAL/MOL
REMARK 927      BINDING AFFINITY PREDICTED BY RF-SCORE:    0.00 PKD
ROOT
HETATM    1  C   UNL     1      -8.952  18.600  68.029  1.00  0.00    -0.302 C  
HETATM    2  O   UNL     1      -9.966  18.006  68.841  1.00  0.00    -0.370 OA 
ENDROOT
BRANCH   2   3
HETATM    3  C   UNL     1     -10.483  16.844  68.331  1.00  0.00    -0.355 A  
HETATM    4  C   UNL     1     -11.289  16.091  69.185  1.00  0.00    -0.352 A  
HETATM    5  O   UNL     1     -11.530  16.517  70.461  1.00  0.00    -0.512 OA 
HETATM    6  C   UNL     1     -11.837  14.876  68.781  1.00  0.00    -0.328 A  
HETATM    7  C   UNL     1     -11.567  14.403  67.496  1.00  0.00    -0.398 A  
HETATM    8  H   UNL     1     -12.080  16.005  71.042  1.00  0.00     0.000 HD 
HETATM    9  C   UNL     1     -10.780  15.150  66.612  1.00  0.00    -0.310 A  
HETATM   10  C   UNL     1     -10.259  16.387  67.032  1.00  0.00    -0.282 A  
BRANCH   9  11
HETATM   11  C   UNL     1     -10.405  14.623  65.252  1.00  0.00    -0.399 C  
BRANCH  11  12
HETATM   12  N   UNL     1     -10.007  13.248  65.302  1.00  0.00    -0.496 N  
HETATM   13  C   UNL     1     -10.828  12.241  64.851  1.00  0.00    -0.302 C  
HETATM   14  H   UNL     1      -9.091  13.009  65.682  1.00  0.00     0.000 HD 
HETATM   15  O   UNL     1     -11.930  12.421  64.368  1.00  0.00    -0.368 OA 
BRANCH  13  16
HETATM   16  C   UNL     1     -10.245  10.877  65.102  1.00  0.00    -0.360 C  
BRANCH  16  17
HETATM   17  C   UNL     1      -9.870  10.638  66.558  1.00  0.00    -0.250 C  
BRANCH  17  18
HETATM   18  C   UNL     1     -11.077  10.647  67.509  1.00  0.00    -0.367 C  
BRANCH  18  19
HETATM   19  C   UNL     1     -10.789  11.086  68.951  1.00  0.00    -0.262 C  
BRANCH  19  20
HETATM   20  C   UNL     1     -11.890  10.776  69.930  1.00  0.00    -0.413 C  
HETATM   21  C   UNL     1     -11.947   9.713  70.752  1.00  0.00    -0.356 C  
HETATM   22  C   UNL     1     -10.855   8.697  70.975  1.00  0.00    -0.302 C  
HETATM   23  C   UNL     1     -11.007   7.491  70.050  1.00  0.00    -0.252 C  
HETATM   24  C   UNL     1     -10.843   8.256  72.437  1.00  0.00    -0.421 C  
ENDBRANCH  19  20
ENDBRANCH  18  19
ENDBRANCH  17  18
ENDBRANCH  16  17
ENDBRANCH  13  16
ENDBRANCH  11  12
ENDBRANCH   9  11
ENDBRANCH   2   3
TORSDOF 8
ENDMDL
MODEL       66
REMARK 921   NORMALIZED FREE ENERGY PREDICTED BY IDOCK:   -5.28 KCAL/MOL
REMARK 922        TOTAL FREE ENERGY PREDICTED BY IDOCK:   -8.96 KCAL/MOL
REMARK 923 INTER-LIGAND FREE ENERGY PREDICTED BY IDOCK:   -7.81 KCAL/MOL
REMARK 924 INTRA-LIGAND FREE ENERGY PREDICTED BY IDOCK:   -1.15 KCAL/MOL
REMARK 927      BINDING AFFINITY PREDICTED BY RF-SCORE:    0.00 PKD
ROOT
HETATM    1  C   UNL     1      -9.507  20.014  67.076  1.00  0.00    -0.395 C  
HETATM    2  O   UNL     1      -8.702  18.907  67.486  1.00  0.00    -0.272 OA 
ENDROOT
BRANCH   2   3
HETATM    3  C   UNL     1      -9.130  17.697  67.007  1.00  0.00    -0.250 A  
HETATM    4  C   UNL     1      -8.418  16.572  67.425  1.00  0.00    -0.177 A  
HETATM    5  O   UNL     1      -7.349  16.706  68.268  1.00  0.00    -0.167 OA 
HETATM    6  C   UNL     1      -8.746  15.296  66.973  1.00  0.00    -0.260 A  
HETATM    7  C   UNL     1      -9.806  15.144  66.079  1.00  0.00    -0.349 A  
HETATM    8  H   UNL     1      -6.865  15.940  68.553  1.00  0.00     0.000 HD 
HETATM    9  C   UNL     1     -10.552  16.254  65.662  1.00  0.00    -0.360 A  
HETATM   10  C   UNL     1     -10.220  17.529  66.152  1.00  0.00    -0.339 A  
BRANCH   9  11
HETATM   11  C   UNL     1     -11.645  16.128  64.635  1.00  0.00    -0.133 C  
BRANCH  11  12
HETATM   12  N   UNL     1     -11.629  14.848  63.990  1.00  0.00    -0.666 N  
HETATM   13  C   UNL     1     -12.517  13.856  64.331  1.00  0.00    -0.279 C  
HETATM   14  H   UNL     1     -10.940  14.669  63.259  1.00  0.00     0.000 HD 
HETATM   15  O   UNL     1     -13.385  13.974  65.177  1.00  0.00    -0.703 OA 
BRANCH  13  16
HETATM   16  C   UNL     1     -12.242  12.570  63.600  1.00  0.00    -0.642 C  
BRANCH  16  17
HETATM   17  C   UNL     1     -10.777  12.158  63.632  1.00  0.00    -0.518 C  
BRANCH  17  18
HETATM   18  C   UNL     1     -10.452  11.144  64.739  1.00  0.00    -0.388 C  
BRANCH  18  19
HETATM   19  C   UNL     1     -10.991  11.483  66.136  1.00  0.00    -0.320 C  
BRANCH  19  20
HETATM   20  C   UNL     1     -10.000  11.289  67.252  1.00  0.00    -0.208 C  
HETATM   21  C   UNL     1     -10.257  11.385  68.569  1.00  0.00    -0.216 C  
HETATM   22  C   UNL     1     -11.615  11.555  69.204  1.00  0.00    -0.382 C  
HETATM   23  C   UNL     1     -11.952  13.027  69.433  1.00  0.00    -0.338 C  
HETATM   24  C   UNL     1     -11.678  10.777  70.517  1.00  0.00    -0.449 C  
ENDBRANCH  19  20
ENDBRANCH  18  19
ENDBRANCH  17  18
ENDBRANCH  16  17
ENDBRANCH  13  16
ENDBRANCH  11  12
ENDBRANCH   9  11
ENDBRANCH   2   3
TORSDOF 8
ENDMDL
MODEL       67
REMARK 921   NORMALIZED FREE ENERGY PREDICTED BY IDOCK:   -5.28 KCAL/MOL
REMARK 922        TOTAL FREE ENERGY PREDICTED BY IDOCK:   -8.96 KCAL/MOL
REMARK 923 INTER-LIGAND FREE ENERGY PREDICTED BY IDOCK:   -7.78 KCAL/MOL
REMARK 924 INTRA-LIGAND FREE ENERGY PREDICTED BY IDOCK:   -1.18 KCAL/MOL
REMARK 927      BINDING AFFINITY PREDICTED BY RF-SCORE:    0.00 PKD
ROOT
HETATM    1  C   UNL     1      -6.738  18.736  68.857  1.00  0.00    -0.280 C  
HETATM    2  O   UNL     1      -8.030  19.343  68.797  1.00  0.00    -0.353 OA 
ENDROOT
BRANCH   2   3
HETATM    3  C   UNL     1      -8.872  18.778  67.876  1.00  0.00    -0.296 A  
HETATM    4  C   UNL     1      -9.448  19.641  66.943  1.00  0.00    -0.358 A  
HETATM    5  O   UNL     1      -9.167  20.979  66.974  1.00  0.00    -0.646 OA 
HETATM    6  C   UNL     1     -10.345  19.178  65.984  1.00  0.00    -0.538 A  
HETATM    7  C   UNL     1     -10.677  17.823  65.962  1.00  0.00    -0.119 A  
HETATM    8  H   UNL     1      -9.558  21.566  66.338  1.00  0.00     0.000 HD 
HETATM    9  C   UNL     1     -10.097  16.932  66.874  1.00  0.00    -0.289 A  
HETATM   10  C   UNL     1      -9.173  17.417  67.815  1.00  0.00    -0.248 A  
BRANCH   9  11
HETATM   11  C   UNL     1     -10.501  15.483  66.926  1.00  0.00    -0.301 C  
BRANCH  11  12
HETATM   12  N   UNL     1     -10.773  14.955  65.622  1.00  0.00    -0.321 N  
HETATM   13  C   UNL     1     -11.924  14.254  65.352  1.00  0.00    -0.383 C  
HETATM   14  H   UNL     1     -10.095  15.105  64.874  1.00  0.00     0.000 HD 
HETATM   15  O   UNL     1     -12.801  14.035  66.168  1.00  0.00    -0.394 OA 
BRANCH  13  16
HETATM   16  C   UNL     1     -11.942  13.708  63.949  1.00  0.00    -0.455 C  
BRANCH  16  17
HETATM   17  C   UNL     1     -12.068  12.192  63.892  1.00  0.00    -0.584 C  
BRANCH  17  18
HETATM   18  C   UNL     1     -10.790  11.490  63.409  1.00  0.00    -0.423 C  
BRANCH  18  19
HETATM   19  C   UNL     1      -9.687  11.312  64.461  1.00  0.00    -0.293 C  
BRANCH  19  20
HETATM   20  C   UNL     1      -9.911  10.169  65.415  1.00  0.00    -0.377 C  
HETATM   21  C   UNL     1     -10.245  10.271  66.714  1.00  0.00    -0.286 C  
HETATM   22  C   UNL     1     -10.612  11.539  67.444  1.00  0.00    -0.252 C  
HETATM   23  C   UNL     1      -9.398  12.178  68.114  1.00  0.00    -0.204 C  
HETATM   24  C   UNL     1     -11.705  11.250  68.472  1.00  0.00    -0.378 C  
ENDBRANCH  19  20
ENDBRANCH  18  19
ENDBRANCH  17  18
ENDBRANCH  16  17
ENDBRANCH  13  16
ENDBRANCH  11  12
ENDBRANCH   9  11
ENDBRANCH   2   3
TORSDOF 8
ENDMDL
MODEL       68
REMARK 921   NORMALIZED FREE ENERGY PREDICTED BY IDOCK:   -5.27 KCAL/MOL
REMARK 922        TOTAL FREE ENERGY PREDICTED BY IDOCK:   -8.96 KCAL/MOL
REMARK 923 INTER-LIGAND FREE ENERGY PREDICTED BY IDOCK:   -7.46 KCAL/MOL
REMARK 924 INTRA-LIGAND FREE ENERGY PREDICTED BY IDOCK:   -1.50 KCAL/MOL
REMARK 927      BINDING AFFINITY PREDICTED BY RF-SCORE:    0.00 PKD
ROOT
HETATM    1  C   UNL     1     -10.643  17.058  68.794  1.00  0.00    -0.346 C  
HETATM    2  O   UNL     1     -11.312  15.916  69.330  1.00  0.00    -0.303 OA 
ENDROOT
BRANCH   2   3
HETATM    3  C   UNL     1     -11.383  14.852  68.470  1.00  0.00    -0.298 A  
HETATM    4  C   UNL     1     -11.534  13.591  69.046  1.00  0.00    -0.303 A  
HETATM    5  O   UNL     1     -11.602  13.456  70.405  1.00  0.00    -0.520 OA 
HETATM    6  C   UNL     1     -11.583  12.438  68.266  1.00  0.00    -0.384 A  
HETATM    7  C   UNL     1     -11.473  12.551  66.879  1.00  0.00    -0.416 A  
HETATM    8  H   UNL     1     -11.705  12.597  70.797  1.00  0.00     0.000 HD 
HETATM    9  C   UNL     1     -11.344  13.807  66.274  1.00  0.00    -0.329 A  
HETATM   10  C   UNL     1     -11.324  14.959  67.080  1.00  0.00    -0.345 A  
BRANCH   9  11
HETATM   11  C   UNL     1     -11.139  13.950  64.790  1.00  0.00    -0.383 C  
BRANCH  11  12
HETATM   12  N   UNL     1     -10.147  13.041  64.297  1.00  0.00    -0.617 N  
HETATM   13  C   UNL     1     -10.479  11.975  63.494  1.00  0.00    -0.464 C  
HETATM   14  H   UNL     1      -9.169  13.189  64.547  1.00  0.00     0.000 HD 
HETATM   15  O   UNL     1     -11.611  11.721  63.126  1.00  0.00    -0.294 OA 
BRANCH  13  16
HETATM   16  C   UNL     1      -9.292  11.102  63.188  1.00  0.00    -0.339 C  
BRANCH  16  17
HETATM   17  C   UNL     1      -8.636  10.517  64.432  1.00  0.00    -0.160 C  
BRANCH  17  18
HETATM   18  C   UNL     1      -9.551   9.562  65.213  1.00  0.00    -0.314 C  
BRANCH  18  19
HETATM   19  C   UNL     1      -9.319   9.504  66.729  1.00  0.00    -0.196 C  
BRANCH  19  20
HETATM   20  C   UNL     1     -10.112   8.442  67.442  1.00  0.00    -0.301 C  
HETATM   21  C   UNL     1     -10.429   8.430  68.749  1.00  0.00    -0.202 C  
HETATM   22  C   UNL     1     -10.190   9.545  69.737  1.00  0.00    -0.249 C  
HETATM   23  C   UNL     1      -8.857   9.381  70.464  1.00  0.00    -0.287 C  
HETATM   24  C   UNL     1     -11.344   9.613  70.735  1.00  0.00    -0.409 C  
ENDBRANCH  19  20
ENDBRANCH  18  19
ENDBRANCH  17  18
ENDBRANCH  16  17
ENDBRANCH  13  16
ENDBRANCH  11  12
ENDBRANCH   9  11
ENDBRANCH   2   3
TORSDOF 8
ENDMDL
MODEL       69
REMARK 921   NORMALIZED FREE ENERGY PREDICTED BY IDOCK:   -5.26 KCAL/MOL
REMARK 922        TOTAL FREE ENERGY PREDICTED BY IDOCK:   -8.93 KCAL/MOL
REMARK 923 INTER-LIGAND FREE ENERGY PREDICTED BY IDOCK:   -8.14 KCAL/MOL
REMARK 924 INTRA-LIGAND FREE ENERGY PREDICTED BY IDOCK:   -0.79 KCAL/MOL
REMARK 927      BINDING AFFINITY PREDICTED BY RF-SCORE:    0.00 PKD
ROOT
HETATM    1  C   UNL     1      -9.775  10.425  68.195  1.00  0.00    -0.151 C  
HETATM    2  O   UNL     1     -10.121   9.312  67.367  1.00  0.00    -0.191 OA 
ENDROOT
BRANCH   2   3
HETATM    3  C   UNL     1      -9.663   9.409  66.079  1.00  0.00    -0.275 A  
HETATM    4  C   UNL     1      -8.711   8.470  65.682  1.00  0.00    -0.181 A  
HETATM    5  O   UNL     1      -8.275   7.516  66.560  1.00  0.00    -0.115 OA 
HETATM    6  C   UNL     1      -8.154   8.497  64.406  1.00  0.00    -0.163 A  
HETATM    7  C   UNL     1      -8.555   9.489  63.511  1.00  0.00    -0.221 A  
HETATM    8  H   UNL     1      -7.626   6.876  66.289  1.00  0.00     0.000 HD 
HETATM    9  C   UNL     1      -9.526  10.429  63.877  1.00  0.00    -0.354 A  
HETATM   10  C   UNL     1     -10.095  10.366  65.161  1.00  0.00    -0.379 A  
BRANCH   9  11
HETATM   11  C   UNL     1      -9.914  11.559  62.960  1.00  0.00    -0.322 C  
BRANCH  11  12
HETATM   12  N   UNL     1     -10.405  12.693  63.686  1.00  0.00    -0.463 N  
HETATM   13  C   UNL     1     -11.747  12.988  63.742  1.00  0.00    -0.485 C  
HETATM   14  H   UNL     1      -9.742  13.296  64.173  1.00  0.00     0.000 HD 
HETATM   15  O   UNL     1     -12.618  12.325  63.210  1.00  0.00    -0.656 OA 
BRANCH  13  16
HETATM   16  C   UNL     1     -12.014  14.279  64.468  1.00  0.00    -0.478 C  
BRANCH  16  17
HETATM   17  C   UNL     1     -12.747  14.089  65.789  1.00  0.00    -0.487 C  
BRANCH  17  18
HETATM   18  C   UNL     1     -11.897  13.397  66.865  1.00  0.00    -0.453 C  
BRANCH  18  19
HETATM   19  C   UNL     1     -11.792  14.129  68.209  1.00  0.00    -0.391 C  
BRANCH  19  20
HETATM   20  C   UNL     1     -11.967  13.248  69.417  1.00  0.00    -0.356 C  
HETATM   21  C   UNL     1     -12.501  13.612  70.596  1.00  0.00    -0.417 C  
HETATM   22  C   UNL     1     -13.173  14.927  70.904  1.00  0.00    -0.420 C  
HETATM   23  C   UNL     1     -12.190  15.942  71.485  1.00  0.00    -0.525 C  
HETATM   24  C   UNL     1     -14.344  14.703  71.859  1.00  0.00    -0.656 C  
ENDBRANCH  19  20
ENDBRANCH  18  19
ENDBRANCH  17  18
ENDBRANCH  16  17
ENDBRANCH  13  16
ENDBRANCH  11  12
ENDBRANCH   9  11
ENDBRANCH   2   3
TORSDOF 8
ENDMDL
MODEL       70
REMARK 921   NORMALIZED FREE ENERGY PREDICTED BY IDOCK:   -5.25 KCAL/MOL
REMARK 922        TOTAL FREE ENERGY PREDICTED BY IDOCK:   -8.93 KCAL/MOL
REMARK 923 INTER-LIGAND FREE ENERGY PREDICTED BY IDOCK:   -8.46 KCAL/MOL
REMARK 924 INTRA-LIGAND FREE ENERGY PREDICTED BY IDOCK:   -0.46 KCAL/MOL
REMARK 927      BINDING AFFINITY PREDICTED BY RF-SCORE:    0.00 PKD
ROOT
HETATM    1  C   UNL     1      -6.069  17.758  68.520  1.00  0.00    -0.181 C  
HETATM    2  O   UNL     1      -6.637  19.038  68.240  1.00  0.00    -0.233 OA 
ENDROOT
BRANCH   2   3
HETATM    3  C   UNL     1      -7.974  19.005  67.941  1.00  0.00    -0.277 A  
HETATM    4  C   UNL     1      -8.538  20.188  67.466  1.00  0.00    -0.336 A  
HETATM    5  O   UNL     1      -7.769  21.309  67.318  1.00  0.00    -0.691 OA 
HETATM    6  C   UNL     1      -9.895  20.275  67.163  1.00  0.00    -0.606 A  
HETATM    7  C   UNL     1     -10.704  19.154  67.347  1.00  0.00    -0.578 A  
HETATM    8  H   UNL     1      -8.153  22.115  66.994  1.00  0.00     0.000 HD 
HETATM    9  C   UNL     1     -10.159  17.947  67.802  1.00  0.00    -0.350 A  
HETATM   10  C   UNL     1      -8.782  17.875  68.075  1.00  0.00    -0.256 A  
BRANCH   9  11
HETATM   11  C   UNL     1     -11.024  16.749  68.089  1.00  0.00    -0.309 C  
BRANCH  11  12
HETATM   12  N   UNL     1     -11.509  16.749  69.437  1.00  0.00    -0.160 N  
HETATM   13  C   UNL     1     -11.320  15.673  70.272  1.00  0.00    -0.344 C  
HETATM   14  H   UNL     1     -12.007  17.568  69.786  1.00  0.00     0.000 HD 
HETATM   15  O   UNL     1     -10.727  14.657  69.958  1.00  0.00    -0.137 OA 
BRANCH  13  16
HETATM   16  C   UNL     1     -12.006  15.856  71.599  1.00  0.00    -0.553 C  
BRANCH  16  17
HETATM   17  C   UNL     1     -13.371  15.187  71.671  1.00  0.00    -0.521 C  
BRANCH  17  18
HETATM   18  C   UNL     1     -13.346  13.823  72.377  1.00  0.00    -0.635 C  
BRANCH  18  19
HETATM   19  C   UNL     1     -12.792  12.653  71.553  1.00  0.00    -0.368 C  
BRANCH  19  20
HETATM   20  C   UNL     1     -13.271  11.295  71.994  1.00  0.00    -0.437 C  
HETATM   21  C   UNL     1     -12.652  10.122  71.771  1.00  0.00    -0.500 C  
HETATM   22  C   UNL     1     -11.280   9.937  71.170  1.00  0.00    -0.404 C  
HETATM   23  C   UNL     1     -11.347   9.738  69.657  1.00  0.00    -0.165 C  
HETATM   24  C   UNL     1     -10.574   8.759  71.838  1.00  0.00    -0.425 C  
ENDBRANCH  19  20
ENDBRANCH  18  19
ENDBRANCH  17  18
ENDBRANCH  16  17
ENDBRANCH  13  16
ENDBRANCH  11  12
ENDBRANCH   9  11
ENDBRANCH   2   3
TORSDOF 8
ENDMDL
MODEL       71
REMARK 921   NORMALIZED FREE ENERGY PREDICTED BY IDOCK:   -5.25 KCAL/MOL
REMARK 922        TOTAL FREE ENERGY PREDICTED BY IDOCK:   -8.92 KCAL/MOL
REMARK 923 INTER-LIGAND FREE ENERGY PREDICTED BY IDOCK:   -7.72 KCAL/MOL
REMARK 924 INTRA-LIGAND FREE ENERGY PREDICTED BY IDOCK:   -1.21 KCAL/MOL
REMARK 927      BINDING AFFINITY PREDICTED BY RF-SCORE:    0.00 PKD
ROOT
HETATM    1  C   UNL     1     -13.376  12.873  72.115  1.00  0.00    -0.515 C  
HETATM    2  O   UNL     1     -13.756  11.530  72.423  1.00  0.00    -0.067 OA 
ENDROOT
BRANCH   2   3
HETATM    3  C   UNL     1     -12.982  10.577  71.815  1.00  0.00    -0.476 A  
HETATM    4  C   UNL     1     -13.124   9.269  72.279  1.00  0.00    -0.441 A  
HETATM    5  O   UNL     1     -13.998   8.986  73.293  1.00  0.00    -1.205 OA 
HETATM    6  C   UNL     1     -12.362   8.227  71.756  1.00  0.00    -0.366 A  
HETATM    7  C   UNL     1     -11.434   8.502  70.751  1.00  0.00    -0.281 A  
HETATM    8  H   UNL     1     -14.094   8.095  73.608  1.00  0.00     0.000 HD 
HETATM    9  C   UNL     1     -11.289   9.803  70.252  1.00  0.00    -0.333 A  
HETATM   10  C   UNL     1     -12.088  10.833  70.776  1.00  0.00    -0.473 A  
BRANCH   9  11
HETATM   11  C   UNL     1     -10.238  10.141  69.229  1.00  0.00    -0.223 C  
BRANCH  11  12
HETATM   12  N   UNL     1     -10.806  10.726  68.051  1.00  0.00    -0.233 N  
HETATM   13  C   UNL     1     -10.523  12.019  67.678  1.00  0.00    -0.205 C  
HETATM   14  H   UNL     1     -11.437  10.170  67.474  1.00  0.00     0.000 HD 
HETATM   15  O   UNL     1      -9.773  12.760  68.287  1.00  0.00    -0.218 OA 
BRANCH  13  16
HETATM   16  C   UNL     1     -11.314  12.450  66.473  1.00  0.00    -0.392 C  
BRANCH  16  17
HETATM   17  C   UNL     1     -10.630  13.538  65.657  1.00  0.00    -0.284 C  
BRANCH  17  18
HETATM   18  C   UNL     1     -10.445  13.167  64.178  1.00  0.00    -0.348 C  
BRANCH  18  19
HETATM   19  C   UNL     1     -10.969  11.785  63.764  1.00  0.00    -0.500 C  
BRANCH  19  20
HETATM   20  C   UNL     1      -9.989  10.955  62.977  1.00  0.00    -0.317 C  
HETATM   21  C   UNL     1      -9.068  10.117  63.486  1.00  0.00    -0.302 C  
HETATM   22  C   UNL     1      -8.925   9.719  64.934  1.00  0.00    -0.257 C  
HETATM   23  C   UNL     1      -7.939  10.621  65.674  1.00  0.00    -0.136 C  
HETATM   24  C   UNL     1      -8.497   8.257  65.032  1.00  0.00    -0.141 C  
ENDBRANCH  19  20
ENDBRANCH  18  19
ENDBRANCH  17  18
ENDBRANCH  16  17
ENDBRANCH  13  16
ENDBRANCH  11  12
ENDBRANCH   9  11
ENDBRANCH   2   3
TORSDOF 8
ENDMDL
MODEL       72
REMARK 921   NORMALIZED FREE ENERGY PREDICTED BY IDOCK:   -5.25 KCAL/MOL
REMARK 922        TOTAL FREE ENERGY PREDICTED BY IDOCK:   -8.91 KCAL/MOL
REMARK 923 INTER-LIGAND FREE ENERGY PREDICTED BY IDOCK:   -7.79 KCAL/MOL
REMARK 924 INTRA-LIGAND FREE ENERGY PREDICTED BY IDOCK:   -1.12 KCAL/MOL
REMARK 927      BINDING AFFINITY PREDICTED BY RF-SCORE:    0.00 PKD
ROOT
HETATM    1  C   UNL     1      -8.894  10.504  64.981  1.00  0.00    -0.191 C  
HETATM    2  O   UNL     1     -10.313  10.482  65.150  1.00  0.00    -0.304 OA 
ENDROOT
BRANCH   2   3
HETATM    3  C   UNL     1     -10.891  11.723  65.191  1.00  0.00    -0.297 A  
HETATM    4  C   UNL     1     -11.557  12.142  64.039  1.00  0.00    -0.423 A  
HETATM    5  O   UNL     1     -11.609  11.332  62.939  1.00  0.00    -0.834 OA 
HETATM    6  C   UNL     1     -12.151  13.399  63.961  1.00  0.00    -0.506 A  
HETATM    7  C   UNL     1     -12.072  14.257  65.058  1.00  0.00    -0.428 A  
HETATM    8  H   UNL     1     -12.063  11.616  62.155  1.00  0.00     0.000 HD 
HETATM    9  C   UNL     1     -11.429  13.853  66.235  1.00  0.00    -0.347 A  
HETATM   10  C   UNL     1     -10.860  12.569  66.301  1.00  0.00    -0.299 A  
BRANCH   9  11
HETATM   11  C   UNL     1     -11.257  14.789  67.401  1.00  0.00    -0.339 C  
BRANCH  11  12
HETATM   12  N   UNL     1     -11.076  16.146  66.976  1.00  0.00    -0.113 N  
HETATM   13  C   UNL     1     -10.777  17.148  67.868  1.00  0.00    -0.355 C  
HETATM   14  H   UNL     1     -11.172  16.373  65.986  1.00  0.00     0.000 HD 
HETATM   15  O   UNL     1     -10.627  16.979  69.064  1.00  0.00    -0.325 OA 
BRANCH  13  16
HETATM   16  C   UNL     1     -10.740  18.502  67.210  1.00  0.00    -0.417 C  
BRANCH  16  17
HETATM   17  C   UNL     1     -10.156  19.590  68.100  1.00  0.00    -0.537 C  
BRANCH  17  18
HETATM   18  C   UNL     1      -9.105  20.458  67.394  1.00  0.00    -0.484 C  
BRANCH  18  19
HETATM   19  C   UNL     1      -7.640  20.094  67.671  1.00  0.00    -0.339 C  
BRANCH  19  20
HETATM   20  C   UNL     1      -7.446  19.062  68.750  1.00  0.00    -0.369 C  
HETATM   21  C   UNL     1      -7.023  17.798  68.574  1.00  0.00    -0.238 C  
HETATM   22  C   UNL     1      -6.512  17.198  67.288  1.00  0.00    -0.188 C  
HETATM   23  C   UNL     1      -7.627  16.516  66.499  1.00  0.00    -0.304 C  
HETATM   24  C   UNL     1      -5.382  16.214  67.585  1.00  0.00    -0.159 C  
ENDBRANCH  19  20
ENDBRANCH  18  19
ENDBRANCH  17  18
ENDBRANCH  16  17
ENDBRANCH  13  16
ENDBRANCH  11  12
ENDBRANCH   9  11
ENDBRANCH   2   3
TORSDOF 8
ENDMDL
MODEL       73
REMARK 921   NORMALIZED FREE ENERGY PREDICTED BY IDOCK:   -5.24 KCAL/MOL
REMARK 922        TOTAL FREE ENERGY PREDICTED BY IDOCK:   -8.91 KCAL/MOL
REMARK 923 INTER-LIGAND FREE ENERGY PREDICTED BY IDOCK:   -7.35 KCAL/MOL
REMARK 924 INTRA-LIGAND FREE ENERGY PREDICTED BY IDOCK:   -1.55 KCAL/MOL
REMARK 927      BINDING AFFINITY PREDICTED BY RF-SCORE:    0.00 PKD
ROOT
HETATM    1  C   UNL     1     -12.450  12.254  63.466  1.00  0.00    -0.534 C  
HETATM    2  O   UNL     1     -12.912  12.345  64.814  1.00  0.00    -0.786 OA 
ENDROOT
BRANCH   2   3
HETATM    3  C   UNL     1     -11.910  12.446  65.744  1.00  0.00    -0.406 A  
HETATM    4  C   UNL     1     -11.943  13.564  66.578  1.00  0.00    -0.413 A  
HETATM    5  O   UNL     1     -12.936  14.495  66.448  1.00  0.00    -0.265 OA 
HETATM    6  C   UNL     1     -10.955  13.783  67.536  1.00  0.00    -0.285 A  
HETATM    7  C   UNL     1      -9.910  12.867  67.655  1.00  0.00    -0.211 A  
HETATM    8  H   UNL     1     -12.958  15.255  67.017  1.00  0.00     0.000 HD 
HETATM    9  C   UNL     1      -9.866  11.725  66.845  1.00  0.00    -0.221 A  
HETATM   10  C   UNL     1     -10.889  11.510  65.905  1.00  0.00    -0.316 A  
BRANCH   9  11
HETATM   11  C   UNL     1      -8.707  10.766  66.897  1.00  0.00    -0.141 C  
BRANCH  11  12
HETATM   12  N   UNL     1      -8.906   9.738  67.875  1.00  0.00    -0.122 N  
HETATM   13  C   UNL     1      -9.344   8.483  67.524  1.00  0.00    -0.144 C  
HETATM   14  H   UNL     1      -8.717   9.942  68.856  1.00  0.00     0.000 HD 
HETATM   15  O   UNL     1      -9.583   8.134  66.383  1.00  0.00    -0.217 OA 
BRANCH  13  16
HETATM   16  C   UNL     1      -9.581   7.608  68.725  1.00  0.00    -0.153 C  
BRANCH  16  17
HETATM   17  C   UNL     1     -10.948   6.938  68.725  1.00  0.00    -0.210 C  
BRANCH  17  18
HETATM   18  C   UNL     1     -11.270   6.206  70.037  1.00  0.00    -0.471 C  
BRANCH  18  19
HETATM   19  C   UNL     1     -12.214   6.941  70.999  1.00  0.00    -0.427 C  
BRANCH  19  20
HETATM   20  C   UNL     1     -11.530   7.914  71.922  1.00  0.00    -0.328 C  
HETATM   21  C   UNL     1     -11.650   9.254  71.894  1.00  0.00    -0.405 C  
HETATM   22  C   UNL     1     -12.606  10.048  71.039  1.00  0.00    -0.463 C  
HETATM   23  C   UNL     1     -11.964  10.474  69.720  1.00  0.00    -0.309 C  
HETATM   24  C   UNL     1     -13.108  11.265  71.811  1.00  0.00    -0.527 C  
ENDBRANCH  19  20
ENDBRANCH  18  19
ENDBRANCH  17  18
ENDBRANCH  16  17
ENDBRANCH  13  16
ENDBRANCH  11  12
ENDBRANCH   9  11
ENDBRANCH   2   3
TORSDOF 8
ENDMDL
MODEL       74
REMARK 921   NORMALIZED FREE ENERGY PREDICTED BY IDOCK:   -5.24 KCAL/MOL
REMARK 922        TOTAL FREE ENERGY PREDICTED BY IDOCK:   -8.90 KCAL/MOL
REMARK 923 INTER-LIGAND FREE ENERGY PREDICTED BY IDOCK:   -8.00 KCAL/MOL
REMARK 924 INTRA-LIGAND FREE ENERGY PREDICTED BY IDOCK:   -0.91 KCAL/MOL
REMARK 927      BINDING AFFINITY PREDICTED BY RF-SCORE:    0.00 PKD
ROOT
HETATM    1  C   UNL     1     -13.404   9.827  72.042  1.00  0.00    -0.451 C  
HETATM    2  O   UNL     1     -12.274   8.999  72.321  1.00  0.00    -0.361 OA 
ENDROOT
BRANCH   2   3
HETATM    3  C   UNL     1     -11.795   8.319  71.232  1.00  0.00    -0.288 A  
HETATM    4  C   UNL     1     -11.881   6.927  71.277  1.00  0.00    -0.341 A  
HETATM    5  O   UNL     1     -12.418   6.303  72.369  1.00  0.00    -0.546 OA 
HETATM    6  C   UNL     1     -11.394   6.137  70.239  1.00  0.00    -0.414 A  
HETATM    7  C   UNL     1     -10.804   6.753  69.135  1.00  0.00    -0.298 A  
HETATM    8  H   UNL     1     -12.476   5.356  72.399  1.00  0.00     0.000 HD 
HETATM    9  C   UNL     1     -10.726   8.149  69.055  1.00  0.00    -0.099 A  
HETATM   10  C   UNL     1     -11.249   8.928  70.102  1.00  0.00    -0.175 A  
BRANCH   9  11
HETATM   11  C   UNL     1     -10.020   8.835  67.916  1.00  0.00    -0.187 C  
BRANCH  11  12
HETATM   12  N   UNL     1     -10.845   9.829  67.295  1.00  0.00    -0.274 N  
HETATM   13  C   UNL     1     -10.344  11.055  66.925  1.00  0.00    -0.235 C  
HETATM   14  H   UNL     1     -11.829   9.621  67.124  1.00  0.00     0.000 HD 
HETATM   15  O   UNL     1      -9.185  11.394  67.071  1.00  0.00    -0.164 OA 
BRANCH  13  16
HETATM   16  C   UNL     1     -11.415  11.969  66.393  1.00  0.00    -0.417 C  
BRANCH  16  17
HETATM   17  C   UNL     1     -11.468  13.315  67.102  1.00  0.00    -0.380 C  
BRANCH  17  18
HETATM   18  C   UNL     1     -11.846  13.209  68.587  1.00  0.00    -0.363 C  
BRANCH  18  19
HETATM   19  C   UNL     1     -11.212  14.253  69.515  1.00  0.00    -0.286 C  
BRANCH  19  20
HETATM   20  C   UNL     1     -12.129  15.382  69.905  1.00  0.00    -0.382 C  
HETATM   21  C   UNL     1     -12.809  15.491  71.061  1.00  0.00    -0.543 C  
HETATM   22  C   UNL     1     -12.677  14.589  72.263  1.00  0.00    -0.406 C  
HETATM   23  C   UNL     1     -13.694  13.450  72.230  1.00  0.00    -0.705 C  
HETATM   24  C   UNL     1     -12.823  15.405  73.545  1.00  0.00    -0.683 C  
ENDBRANCH  19  20
ENDBRANCH  18  19
ENDBRANCH  17  18
ENDBRANCH  16  17
ENDBRANCH  13  16
ENDBRANCH  11  12
ENDBRANCH   9  11
ENDBRANCH   2   3
TORSDOF 8
ENDMDL
MODEL       75
REMARK 921   NORMALIZED FREE ENERGY PREDICTED BY IDOCK:   -5.23 KCAL/MOL
REMARK 922        TOTAL FREE ENERGY PREDICTED BY IDOCK:   -8.90 KCAL/MOL
REMARK 923 INTER-LIGAND FREE ENERGY PREDICTED BY IDOCK:   -7.88 KCAL/MOL
REMARK 924 INTRA-LIGAND FREE ENERGY PREDICTED BY IDOCK:   -1.02 KCAL/MOL
REMARK 927      BINDING AFFINITY PREDICTED BY RF-SCORE:    0.00 PKD
ROOT
HETATM    1  C   UNL     1     -12.035  14.689  67.214  1.00  0.00    -0.284 C  
HETATM    2  O   UNL     1     -12.400  14.262  65.900  1.00  0.00    -0.430 OA 
ENDROOT
BRANCH   2   3
HETATM    3  C   UNL     1     -11.774  13.115  65.490  1.00  0.00    -0.357 A  
HETATM    4  C   UNL     1     -11.612  12.948  64.114  1.00  0.00    -0.398 A  
HETATM    5  O   UNL     1     -12.069  13.900  63.245  1.00  0.00    -0.938 OA 
HETATM    6  C   UNL     1     -11.020  11.804  63.587  1.00  0.00    -0.513 A  
HETATM    7  C   UNL     1     -10.586  10.802  64.456  1.00  0.00    -0.258 A  
HETATM    8  H   UNL     1     -11.958  13.787  62.309  1.00  0.00     0.000 HD 
HETATM    9  C   UNL     1     -10.716  10.954  65.842  1.00  0.00    -0.193 A  
HETATM   10  C   UNL     1     -11.292  12.130  66.353  1.00  0.00    -0.411 A  
BRANCH   9  11
HETATM   11  C   UNL     1     -10.333   9.853  66.795  1.00  0.00    -0.217 C  
BRANCH  11  12
HETATM   12  N   UNL     1     -11.020   9.967  68.047  1.00  0.00    -0.429 N  
HETATM   13  C   UNL     1     -10.376  10.379  69.190  1.00  0.00    -0.222 C  
HETATM   14  H   UNL     1     -12.013   9.736  68.092  1.00  0.00     0.000 HD 
HETATM   15  O   UNL     1      -9.200  10.691  69.239  1.00  0.00    -0.178 OA 
BRANCH  13  16
HETATM   16  C   UNL     1     -11.269  10.318  70.399  1.00  0.00    -0.407 C  
BRANCH  16  17
HETATM   17  C   UNL     1     -10.820   9.293  71.432  1.00  0.00    -0.434 C  
BRANCH  17  18
HETATM   18  C   UNL     1     -11.985   8.542  72.093  1.00  0.00    -0.451 C  
BRANCH  18  19
HETATM   19  C   UNL     1     -12.410   7.234  71.413  1.00  0.00    -0.403 C  
BRANCH  19  20
HETATM   20  C   UNL     1     -11.399   6.122  71.507  1.00  0.00    -0.340 C  
HETATM   21  C   UNL     1     -10.487   5.795  70.574  1.00  0.00    -0.331 C  
HETATM   22  C   UNL     1     -10.186   6.565  69.311  1.00  0.00    -0.216 C  
HETATM   23  C   UNL     1     -11.002   6.050  68.127  1.00  0.00    -0.340 C  
HETATM   24  C   UNL     1      -8.691   6.499  69.005  1.00  0.00    -0.128 C  
ENDBRANCH  19  20
ENDBRANCH  18  19
ENDBRANCH  17  18
ENDBRANCH  16  17
ENDBRANCH  13  16
ENDBRANCH  11  12
ENDBRANCH   9  11
ENDBRANCH   2   3
TORSDOF 8
ENDMDL
MODEL       76
REMARK 921   NORMALIZED FREE ENERGY PREDICTED BY IDOCK:   -5.23 KCAL/MOL
REMARK 922        TOTAL FREE ENERGY PREDICTED BY IDOCK:   -8.89 KCAL/MOL
REMARK 923 INTER-LIGAND FREE ENERGY PREDICTED BY IDOCK:   -7.21 KCAL/MOL
REMARK 924 INTRA-LIGAND FREE ENERGY PREDICTED BY IDOCK:   -1.67 KCAL/MOL
REMARK 927      BINDING AFFINITY PREDICTED BY RF-SCORE:    0.00 PKD
ROOT
HETATM    1  C   UNL     1     -12.523  14.454  64.446  1.00  0.00    -0.312 C  
HETATM    2  O   UNL     1     -12.654  13.052  64.202  1.00  0.00    -0.619 OA 
ENDROOT
BRANCH   2   3
HETATM    3  C   UNL     1     -11.824  12.272  64.963  1.00  0.00    -0.357 A  
HETATM    4  C   UNL     1     -11.043  11.338  64.281  1.00  0.00    -0.222 A  
HETATM    5  O   UNL     1     -11.128  11.231  62.920  1.00  0.00    -0.818 OA 
HETATM    6  C   UNL     1     -10.190  10.471  64.959  1.00  0.00    -0.365 A  
HETATM    7  C   UNL     1     -10.122  10.537  66.351  1.00  0.00    -0.285 A  
HETATM    8  H   UNL     1     -10.596  10.596  62.455  1.00  0.00     0.000 HD 
HETATM    9  C   UNL     1     -10.878  11.480  67.058  1.00  0.00    -0.320 A  
HETATM   10  C   UNL     1     -11.712  12.363  66.351  1.00  0.00    -0.453 A  
BRANCH   9  11
HETATM   11  C   UNL     1     -10.886  11.515  68.563  1.00  0.00    -0.215 C  
BRANCH  11  12
HETATM   12  N   UNL     1     -11.374  12.764  69.067  1.00  0.00    -0.280 N  
HETATM   13  C   UNL     1     -12.089  12.840  70.239  1.00  0.00    -0.297 C  
HETATM   14  H   UNL     1     -11.186  13.619  68.544  1.00  0.00     0.000 HD 
HETATM   15  O   UNL     1     -12.353  11.884  70.945  1.00  0.00    -0.373 OA 
BRANCH  13  16
HETATM   16  C   UNL     1     -12.587  14.234  70.512  1.00  0.00    -0.418 C  
BRANCH  16  17
HETATM   17  C   UNL     1     -11.520  15.304  70.326  1.00  0.00    -0.326 C  
BRANCH  17  18
HETATM   18  C   UNL     1     -11.742  16.178  69.082  1.00  0.00    -0.239 C  
BRANCH  18  19
HETATM   19  C   UNL     1     -10.484  16.519  68.272  1.00  0.00    -0.313 C  
BRANCH  19  20
HETATM   20  C   UNL     1     -10.340  15.748  66.987  1.00  0.00    -0.292 C  
HETATM   21  C   UNL     1      -9.283  14.998  66.625  1.00  0.00    -0.302 C  
HETATM   22  C   UNL     1      -8.096  14.650  67.488  1.00  0.00    -0.200 C  
HETATM   23  C   UNL     1      -6.952  15.645  67.303  1.00  0.00    -0.224 C  
HETATM   24  C   UNL     1      -7.629  13.229  67.184  1.00  0.00     0.014 C  
ENDBRANCH  19  20
ENDBRANCH  18  19
ENDBRANCH  17  18
ENDBRANCH  16  17
ENDBRANCH  13  16
ENDBRANCH  11  12
ENDBRANCH   9  11
ENDBRANCH   2   3
TORSDOF 8
ENDMDL
MODEL       77
REMARK 921   NORMALIZED FREE ENERGY PREDICTED BY IDOCK:   -5.22 KCAL/MOL
REMARK 922        TOTAL FREE ENERGY PREDICTED BY IDOCK:   -8.88 KCAL/MOL
REMARK 923 INTER-LIGAND FREE ENERGY PREDICTED BY IDOCK:   -8.01 KCAL/MOL
REMARK 924 INTRA-LIGAND FREE ENERGY PREDICTED BY IDOCK:   -0.87 KCAL/MOL
REMARK 927      BINDING AFFINITY PREDICTED BY RF-SCORE:    0.00 PKD
ROOT
HETATM    1  C   UNL     1     -11.992  15.741  64.205  1.00  0.00    -0.058 C  
HETATM    2  O   UNL     1     -12.563  14.434  64.118  1.00  0.00    -0.692 OA 
ENDROOT
BRANCH   2   3
HETATM    3  C   UNL     1     -12.091  13.554  65.056  1.00  0.00    -0.397 A  
HETATM    4  C   UNL     1     -11.555  12.358  64.577  1.00  0.00    -0.348 A  
HETATM    5  O   UNL     1     -11.520  12.107  63.233  1.00  0.00    -0.640 OA 
HETATM    6  C   UNL     1     -11.079  11.378  65.444  1.00  0.00    -0.196 A  
HETATM    7  C   UNL     1     -11.146  11.598  66.820  1.00  0.00    -0.366 A  
HETATM    8  H   UNL     1     -11.154  11.293  62.907  1.00  0.00     0.000 HD 
HETATM    9  C   UNL     1     -11.658  12.799  67.326  1.00  0.00    -0.420 A  
HETATM   10  C   UNL     1     -12.108  13.785  66.432  1.00  0.00    -0.483 A  
BRANCH   9  11
HETATM   11  C   UNL     1     -11.819  13.026  68.806  1.00  0.00    -0.317 C  
BRANCH  11  12
HETATM   12  N   UNL     1     -11.970  11.795  69.523  1.00  0.00    -0.309 N  
HETATM   13  C   UNL     1     -12.494  11.759  70.794  1.00  0.00    -0.312 C  
HETATM   14  H   UNL     1     -11.682  10.922  69.079  1.00  0.00     0.000 HD 
HETATM   15  O   UNL     1     -12.880  12.739  71.404  1.00  0.00    -0.370 OA 
BRANCH  13  16
HETATM   16  C   UNL     1     -12.457  10.375  71.385  1.00  0.00    -0.521 C  
BRANCH  16  17
HETATM   17  C   UNL     1     -11.613   9.396  70.580  1.00  0.00    -0.330 C  
BRANCH  17  18
HETATM   18  C   UNL     1     -10.250   9.095  71.220  1.00  0.00    -0.400 C  
BRANCH  18  19
HETATM   19  C   UNL     1     -10.288   8.309  72.538  1.00  0.00    -0.401 C  
BRANCH  19  20
HETATM   20  C   UNL     1     -11.385   7.281  72.620  1.00  0.00    -0.333 C  
HETATM   21  C   UNL     1     -11.330   6.020  72.155  1.00  0.00    -0.351 C  
HETATM   22  C   UNL     1     -10.113   5.328  71.592  1.00  0.00    -0.259 C  
HETATM   23  C   UNL     1     -10.031   5.473  70.074  1.00  0.00    -0.285 C  
HETATM   24  C   UNL     1     -10.120   3.855  71.994  1.00  0.00    -0.220 C  
ENDBRANCH  19  20
ENDBRANCH  18  19
ENDBRANCH  17  18
ENDBRANCH  16  17
ENDBRANCH  13  16
ENDBRANCH  11  12
ENDBRANCH   9  11
ENDBRANCH   2   3
TORSDOF 8
ENDMDL
MODEL       78
REMARK 921   NORMALIZED FREE ENERGY PREDICTED BY IDOCK:   -5.22 KCAL/MOL
REMARK 922        TOTAL FREE ENERGY PREDICTED BY IDOCK:   -8.87 KCAL/MOL
REMARK 923 INTER-LIGAND FREE ENERGY PREDICTED BY IDOCK:   -7.08 KCAL/MOL
REMARK 924 INTRA-LIGAND FREE ENERGY PREDICTED BY IDOCK:   -1.79 KCAL/MOL
REMARK 927      BINDING AFFINITY PREDICTED BY RF-SCORE:    0.00 PKD
ROOT
HETATM    1  C   UNL     1     -10.422  12.066  63.471  1.00  0.00    -0.464 C  
HETATM    2  O   UNL     1     -10.590  11.139  64.545  1.00  0.00    -0.329 OA 
ENDROOT
BRANCH   2   3
HETATM    3  C   UNL     1      -9.952  11.501  65.702  1.00  0.00    -0.236 A  
HETATM    4  C   UNL     1      -9.334  10.478  66.422  1.00  0.00    -0.168 A  
HETATM    5  O   UNL     1      -9.382   9.189  65.969  1.00  0.00    -0.200 OA 
HETATM    6  C   UNL     1      -8.686  10.729  67.629  1.00  0.00    -0.126 A  
HETATM    7  C   UNL     1      -8.663  12.032  68.129  1.00  0.00    -0.177 A  
HETATM    8  H   UNL     1      -8.960   8.492  66.458  1.00  0.00     0.000 HD 
HETATM    9  C   UNL     1      -9.256  13.080  67.415  1.00  0.00    -0.208 A  
HETATM   10  C   UNL     1      -9.880  12.808  66.186  1.00  0.00    -0.269 A  
BRANCH   9  11
HETATM   11  C   UNL     1      -9.318  14.477  67.973  1.00  0.00    -0.201 C  
BRANCH  11  12
HETATM   12  N   UNL     1     -10.016  14.524  69.223  1.00  0.00    -0.409 N  
HETATM   13  C   UNL     1     -11.215  15.184  69.357  1.00  0.00    -0.283 C  
HETATM   14  H   UNL     1      -9.613  14.056  70.035  1.00  0.00     0.000 HD 
HETATM   15  O   UNL     1     -11.786  15.759  68.449  1.00  0.00    -0.366 OA 
BRANCH  13  16
HETATM   16  C   UNL     1     -11.705  15.190  70.780  1.00  0.00    -0.370 C  
BRANCH  16  17
HETATM   17  C   UNL     1     -13.210  15.389  70.900  1.00  0.00    -0.512 C  
BRANCH  17  18
HETATM   18  C   UNL     1     -13.908  14.287  71.711  1.00  0.00    -0.514 C  
BRANCH  18  19
HETATM   19  C   UNL     1     -12.990  13.220  72.321  1.00  0.00    -0.376 C  
BRANCH  19  20
HETATM   20  C   UNL     1     -13.488  11.807  72.172  1.00  0.00    -0.273 C  
HETATM   21  C   UNL     1     -13.015  10.883  71.316  1.00  0.00    -0.492 C  
HETATM   22  C   UNL     1     -11.794  11.020  70.439  1.00  0.00    -0.460 C  
HETATM   23  C   UNL     1     -12.151  11.549  69.052  1.00  0.00    -0.303 C  
HETATM   24  C   UNL     1     -11.076   9.676  70.335  1.00  0.00    -0.346 C  
ENDBRANCH  19  20
ENDBRANCH  18  19
ENDBRANCH  17  18
ENDBRANCH  16  17
ENDBRANCH  13  16
ENDBRANCH  11  12
ENDBRANCH   9  11
ENDBRANCH   2   3
TORSDOF 8
ENDMDL
MODEL       79
REMARK 921   NORMALIZED FREE ENERGY PREDICTED BY IDOCK:   -5.21 KCAL/MOL
REMARK 922        TOTAL FREE ENERGY PREDICTED BY IDOCK:   -8.86 KCAL/MOL
REMARK 923 INTER-LIGAND FREE ENERGY PREDICTED BY IDOCK:   -7.92 KCAL/MOL
REMARK 924 INTRA-LIGAND FREE ENERGY PREDICTED BY IDOCK:   -0.94 KCAL/MOL
REMARK 927      BINDING AFFINITY PREDICTED BY RF-SCORE:    0.00 PKD
ROOT
HETATM    1  C   UNL     1     -10.955  10.131  67.716  1.00  0.00    -0.277 C  
HETATM    2  O   UNL     1     -10.538   9.985  69.074  1.00  0.00    -0.195 OA 
ENDROOT
BRANCH   2   3
HETATM    3  C   UNL     1     -11.397  10.538  69.986  1.00  0.00    -0.318 A  
HETATM    4  C   UNL     1     -12.082   9.651  70.818  1.00  0.00    -0.248 A  
HETATM    5  O   UNL     1     -11.884   8.303  70.701  1.00  0.00    -0.447 OA 
HETATM    6  C   UNL     1     -13.005  10.103  71.758  1.00  0.00    -0.567 A  
HETATM    7  C   UNL     1     -13.252  11.472  71.863  1.00  0.00    -0.479 A  
HETATM    8  H   UNL     1     -12.349   7.699  71.268  1.00  0.00     0.000 HD 
HETATM    9  C   UNL     1     -12.562  12.385  71.055  1.00  0.00    -0.349 A  
HETATM   10  C   UNL     1     -11.615  11.908  70.133  1.00  0.00    -0.252 A  
BRANCH   9  11
HETATM   11  C   UNL     1     -12.871  13.858  71.090  1.00  0.00    -0.351 C  
BRANCH  11  12
HETATM   12  N   UNL     1     -11.942  14.619  70.308  1.00  0.00    -0.288 N  
HETATM   13  C   UNL     1     -11.564  15.891  70.671  1.00  0.00    -0.400 C  
HETATM   14  H   UNL     1     -11.550  14.207  69.462  1.00  0.00     0.000 HD 
HETATM   15  O   UNL     1     -11.960  16.466  71.668  1.00  0.00    -0.424 OA 
BRANCH  13  16
HETATM   16  C   UNL     1     -10.667  16.531  69.646  1.00  0.00    -0.323 C  
BRANCH  16  17
HETATM   17  C   UNL     1     -11.232  16.482  68.233  1.00  0.00    -0.265 C  
BRANCH  17  18
HETATM   18  C   UNL     1     -10.185  16.768  67.146  1.00  0.00    -0.295 C  
BRANCH  18  19
HETATM   19  C   UNL     1     -10.424  18.027  66.302  1.00  0.00    -0.340 C  
BRANCH  19  20
HETATM   20  C   UNL     1     -10.511  19.304  67.096  1.00  0.00    -0.560 C  
HETATM   21  C   UNL     1      -9.481  19.968  67.650  1.00  0.00    -0.498 C  
HETATM   22  C   UNL     1      -8.016  19.658  67.465  1.00  0.00    -0.316 C  
HETATM   23  C   UNL     1      -7.491  18.729  68.558  1.00  0.00    -0.328 C  
HETATM   24  C   UNL     1      -7.210  20.955  67.427  1.00  0.00    -0.396 C  
ENDBRANCH  19  20
ENDBRANCH  18  19
ENDBRANCH  17  18
ENDBRANCH  16  17
ENDBRANCH  13  16
ENDBRANCH  11  12
ENDBRANCH   9  11
ENDBRANCH   2   3
TORSDOF 8
ENDMDL
MODEL       80
REMARK 921   NORMALIZED FREE ENERGY PREDICTED BY IDOCK:   -5.21 KCAL/MOL
REMARK 922        TOTAL FREE ENERGY PREDICTED BY IDOCK:   -8.86 KCAL/MOL
REMARK 923 INTER-LIGAND FREE ENERGY PREDICTED BY IDOCK:   -8.16 KCAL/MOL
REMARK 924 INTRA-LIGAND FREE ENERGY PREDICTED BY IDOCK:   -0.70 KCAL/MOL
REMARK 927      BINDING AFFINITY PREDICTED BY RF-SCORE:    0.00 PKD
ROOT
HETATM    1  C   UNL     1     -14.336   7.685  71.582  1.00  0.00    -0.477 C  
HETATM    2  O   UNL     1     -13.598   8.730  72.218  1.00  0.00    -0.398 OA 
ENDROOT
BRANCH   2   3
HETATM    3  C   UNL     1     -12.336   8.910  71.716  1.00  0.00    -0.357 A  
HETATM    4  C   UNL     1     -11.302   8.235  72.367  1.00  0.00    -0.388 A  
HETATM    5  O   UNL     1     -11.569   7.444  73.450  1.00  0.00    -0.580 OA 
HETATM    6  C   UNL     1      -9.977   8.373  71.961  1.00  0.00    -0.354 A  
HETATM    7  C   UNL     1      -9.680   9.209  70.884  1.00  0.00    -0.352 A  
HETATM    8  H   UNL     1     -10.865   6.984  73.893  1.00  0.00     0.000 HD 
HETATM    9  C   UNL     1     -10.701   9.880  70.200  1.00  0.00    -0.361 A  
HETATM   10  C   UNL     1     -12.034   9.704  70.610  1.00  0.00    -0.304 A  
BRANCH   9  11
HETATM   11  C   UNL     1     -10.400  10.852  69.090  1.00  0.00    -0.208 C  
BRANCH  11  12
HETATM   12  N   UNL     1     -10.799  12.187  69.425  1.00  0.00    -0.453 N  
HETATM   13  C   UNL     1     -11.709  12.881  68.662  1.00  0.00    -0.324 C  
HETATM   14  H   UNL     1     -10.399  12.634  70.249  1.00  0.00     0.000 HD 
HETATM   15  O   UNL     1     -12.255  12.433  67.670  1.00  0.00    -0.425 OA 
BRANCH  13  16
HETATM   16  C   UNL     1     -11.892  14.295  69.143  1.00  0.00    -0.368 C  
BRANCH  16  17
HETATM   17  C   UNL     1     -11.462  15.341  68.122  1.00  0.00    -0.357 C  
BRANCH  17  18
HETATM   18  C   UNL     1      -9.944  15.383  67.893  1.00  0.00    -0.221 C  
BRANCH  18  19
HETATM   19  C   UNL     1      -9.239  16.676  68.322  1.00  0.00    -0.217 C  
BRANCH  19  20
HETATM   20  C   UNL     1     -10.165  17.826  68.616  1.00  0.00    -0.377 C  
HETATM   21  C   UNL     1     -10.293  18.951  67.889  1.00  0.00    -0.473 C  
HETATM   22  C   UNL     1      -9.651  19.227  66.552  1.00  0.00    -0.420 C  
HETATM   23  C   UNL     1      -8.313  19.949  66.705  1.00  0.00    -0.364 C  
HETATM   24  C   UNL     1     -10.603  20.037  65.675  1.00  0.00    -0.380 C  
ENDBRANCH  19  20
ENDBRANCH  18  19
ENDBRANCH  17  18
ENDBRANCH  16  17
ENDBRANCH  13  16
ENDBRANCH  11  12
ENDBRANCH   9  11
ENDBRANCH   2   3
TORSDOF 8
ENDMDL
MODEL       81
REMARK 921   NORMALIZED FREE ENERGY PREDICTED BY IDOCK:   -5.20 KCAL/MOL
REMARK 922        TOTAL FREE ENERGY PREDICTED BY IDOCK:   -8.85 KCAL/MOL
REMARK 923 INTER-LIGAND FREE ENERGY PREDICTED BY IDOCK:   -8.15 KCAL/MOL
REMARK 924 INTRA-LIGAND FREE ENERGY PREDICTED BY IDOCK:   -0.71 KCAL/MOL
REMARK 927      BINDING AFFINITY PREDICTED BY RF-SCORE:    0.00 PKD
ROOT
HETATM    1  C   UNL     1     -10.216  18.368  66.397  1.00  0.00    -0.410 C  
HETATM    2  O   UNL     1     -10.117  17.346  65.403  1.00  0.00    -0.562 OA 
ENDROOT
BRANCH   2   3
HETATM    3  C   UNL     1     -10.765  16.184  65.729  1.00  0.00    -0.280 A  
HETATM    4  C   UNL     1     -11.521  15.586  64.720  1.00  0.00    -0.313 A  
HETATM    5  O   UNL     1     -11.594  16.158  63.480  1.00  0.00    -1.126 OA 
HETATM    6  C   UNL     1     -12.248  14.420  64.952  1.00  0.00    -0.440 A  
HETATM    7  C   UNL     1     -12.220  13.845  66.223  1.00  0.00    -0.498 A  
HETATM    8  H   UNL     1     -12.108  15.750  62.794  1.00  0.00     0.000 HD 
HETATM    9  C   UNL     1     -11.451  14.413  67.247  1.00  0.00    -0.377 A  
HETATM   10  C   UNL     1     -10.705  15.574  66.982  1.00  0.00    -0.321 A  
BRANCH   9  11
HETATM   11  C   UNL     1     -11.471  13.860  68.647  1.00  0.00    -0.298 C  
BRANCH  11  12
HETATM   12  N   UNL     1     -10.563  12.763  68.802  1.00  0.00    -0.357 N  
HETATM   13  C   UNL     1     -10.975  11.458  68.664  1.00  0.00    -0.220 C  
HETATM   14  H   UNL     1      -9.585  12.954  69.020  1.00  0.00     0.000 HD 
HETATM   15  O   UNL     1     -12.113  11.124  68.390  1.00  0.00    -0.605 OA 
BRANCH  13  16
HETATM   16  C   UNL     1      -9.876  10.479  68.976  1.00  0.00    -0.224 C  
BRANCH  16  17
HETATM   17  C   UNL     1     -10.199   9.052  68.552  1.00  0.00    -0.224 C  
BRANCH  17  18
HETATM   18  C   UNL     1     -10.190   8.052  69.718  1.00  0.00    -0.206 C  
BRANCH  18  19
HETATM   19  C   UNL     1     -11.137   8.372  70.882  1.00  0.00    -0.289 C  
BRANCH  19  20
HETATM   20  C   UNL     1     -10.450   8.606  72.201  1.00  0.00    -0.411 C  
HETATM   21  C   UNL     1      -9.961   7.659  73.022  1.00  0.00    -0.343 C  
HETATM   22  C   UNL     1      -9.861   6.184  72.724  1.00  0.00    -0.176 C  
HETATM   23  C   UNL     1     -11.088   5.422  73.222  1.00  0.00    -0.352 C  
HETATM   24  C   UNL     1      -8.585   5.613  73.340  1.00  0.00    -0.115 C  
ENDBRANCH  19  20
ENDBRANCH  18  19
ENDBRANCH  17  18
ENDBRANCH  16  17
ENDBRANCH  13  16
ENDBRANCH  11  12
ENDBRANCH   9  11
ENDBRANCH   2   3
TORSDOF 8
ENDMDL
MODEL       82
REMARK 921   NORMALIZED FREE ENERGY PREDICTED BY IDOCK:   -5.20 KCAL/MOL
REMARK 922        TOTAL FREE ENERGY PREDICTED BY IDOCK:   -8.85 KCAL/MOL
REMARK 923 INTER-LIGAND FREE ENERGY PREDICTED BY IDOCK:   -7.70 KCAL/MOL
REMARK 924 INTRA-LIGAND FREE ENERGY PREDICTED BY IDOCK:   -1.15 KCAL/MOL
REMARK 927      BINDING AFFINITY PREDICTED BY RF-SCORE:    0.00 PKD
ROOT
HETATM    1  C   UNL     1      -8.849   8.414  72.045  1.00  0.00    -0.211 C  
HETATM    2  O   UNL     1     -10.024   7.998  71.347  1.00  0.00    -0.172 OA 
ENDROOT
BRANCH   2   3
HETATM    3  C   UNL     1     -11.008   8.949  71.290  1.00  0.00    -0.293 A  
HETATM    4  C   UNL     1     -12.109   8.762  72.126  1.00  0.00    -0.371 A  
HETATM    5  O   UNL     1     -12.173   7.671  72.948  1.00  0.00    -0.564 OA 
HETATM    6  C   UNL     1     -13.181   9.650  72.125  1.00  0.00    -0.535 A  
HETATM    7  C   UNL     1     -13.153  10.747  71.262  1.00  0.00    -0.427 A  
HETATM    8  H   UNL     1     -12.923   7.543  73.518  1.00  0.00     0.000 HD 
HETATM    9  C   UNL     1     -12.050  10.970  70.429  1.00  0.00    -0.463 A  
HETATM   10  C   UNL     1     -10.967  10.075  70.468  1.00  0.00    -0.392 A  
BRANCH   9  11
HETATM   11  C   UNL     1     -12.032  12.097  69.431  1.00  0.00    -0.270 C  
BRANCH  11  12
HETATM   12  N   UNL     1     -11.348  13.250  69.937  1.00  0.00    -0.501 N  
HETATM   13  C   UNL     1     -12.024  14.277  70.555  1.00  0.00    -0.331 C  
HETATM   14  H   UNL     1     -10.335  13.311  69.837  1.00  0.00     0.000 HD 
HETATM   15  O   UNL     1     -13.227  14.294  70.737  1.00  0.00    -0.328 OA 
BRANCH  13  16
HETATM   16  C   UNL     1     -11.115  15.424  70.906  1.00  0.00    -0.374 C  
BRANCH  16  17
HETATM   17  C   UNL     1     -10.771  16.309  69.716  1.00  0.00    -0.345 C  
BRANCH  17  18
HETATM   18  C   UNL     1      -9.311  16.177  69.258  1.00  0.00    -0.227 C  
BRANCH  18  19
HETATM   19  C   UNL     1      -9.103  15.827  67.779  1.00  0.00    -0.188 C  
BRANCH  19  20
HETATM   20  C   UNL     1      -8.888  14.362  67.506  1.00  0.00    -0.197 C  
HETATM   21  C   UNL     1      -9.602  13.597  66.662  1.00  0.00    -0.289 C  
HETATM   22  C   UNL     1     -10.663  14.077  65.702  1.00  0.00    -0.306 C  
HETATM   23  C   UNL     1     -12.058  14.006  66.319  1.00  0.00    -0.482 C  
HETATM   24  C   UNL     1     -10.602  13.264  64.411  1.00  0.00    -0.438 C  
ENDBRANCH  19  20
ENDBRANCH  18  19
ENDBRANCH  17  18
ENDBRANCH  16  17
ENDBRANCH  13  16
ENDBRANCH  11  12
ENDBRANCH   9  11
ENDBRANCH   2   3
TORSDOF 8
ENDMDL
MODEL       83
REMARK 921   NORMALIZED FREE ENERGY PREDICTED BY IDOCK:   -5.20 KCAL/MOL
REMARK 922        TOTAL FREE ENERGY PREDICTED BY IDOCK:   -8.84 KCAL/MOL
REMARK 923 INTER-LIGAND FREE ENERGY PREDICTED BY IDOCK:   -7.81 KCAL/MOL
REMARK 924 INTRA-LIGAND FREE ENERGY PREDICTED BY IDOCK:   -1.03 KCAL/MOL
REMARK 927      BINDING AFFINITY PREDICTED BY RF-SCORE:    0.00 PKD
ROOT
HETATM    1  C   UNL     1     -11.905  12.260  68.802  1.00  0.00    -0.306 C  
HETATM    2  O   UNL     1     -11.517  10.908  68.553  1.00  0.00    -0.273 OA 
ENDROOT
BRANCH   2   3
HETATM    3  C   UNL     1     -11.020  10.691  67.294  1.00  0.00    -0.284 A  
HETATM    4  C   UNL     1     -10.269   9.530  67.110  1.00  0.00    -0.242 A  
HETATM    5  O   UNL     1     -10.056   8.673  68.154  1.00  0.00    -0.181 OA 
HETATM    6  C   UNL     1      -9.689   9.229  65.881  1.00  0.00    -0.355 A  
HETATM    7  C   UNL     1      -9.860  10.112  64.814  1.00  0.00    -0.382 A  
HETATM    8  H   UNL     1      -9.545   7.882  68.029  1.00  0.00     0.000 HD 
HETATM    9  C   UNL     1     -10.628  11.273  64.966  1.00  0.00    -0.353 A  
HETATM   10  C   UNL     1     -11.227  11.543  66.209  1.00  0.00    -0.286 A  
BRANCH   9  11
HETATM   11  C   UNL     1     -10.758  12.283  63.857  1.00  0.00    -0.420 C  
BRANCH  11  12
HETATM   12  N   UNL     1     -10.393  13.600  64.288  1.00  0.00    -0.648 N  
HETATM   13  C   UNL     1     -11.340  14.564  64.543  1.00  0.00    -0.316 C  
HETATM   14  H   UNL     1      -9.407  13.829  64.408  1.00  0.00     0.000 HD 
HETATM   15  O   UNL     1     -12.541  14.389  64.446  1.00  0.00    -0.668 OA 
BRANCH  13  16
HETATM   16  C   UNL     1     -10.721  15.895  64.876  1.00  0.00    -0.365 C  
BRANCH  16  17
HETATM   17  C   UNL     1      -9.847  15.860  66.123  1.00  0.00    -0.343 C  
BRANCH  17  18
HETATM   18  C   UNL     1     -10.647  15.715  67.426  1.00  0.00    -0.301 C  
BRANCH  18  19
HETATM   19  C   UNL     1     -10.460  16.839  68.454  1.00  0.00    -0.339 C  
BRANCH  19  20
HETATM   20  C   UNL     1     -10.747  18.221  67.930  1.00  0.00    -0.335 C  
HETATM   21  C   UNL     1      -9.835  19.162  67.627  1.00  0.00    -0.412 C  
HETATM   22  C   UNL     1      -8.338  18.979  67.603  1.00  0.00    -0.314 C  
HETATM   23  C   UNL     1      -7.701  19.355  68.939  1.00  0.00    -0.382 C  
HETATM   24  C   UNL     1      -7.731  19.800  66.467  1.00  0.00    -0.307 C  
ENDBRANCH  19  20
ENDBRANCH  18  19
ENDBRANCH  17  18
ENDBRANCH  16  17
ENDBRANCH  13  16
ENDBRANCH  11  12
ENDBRANCH   9  11
ENDBRANCH   2   3
TORSDOF 8
ENDMDL
MODEL       84
REMARK 921   NORMALIZED FREE ENERGY PREDICTED BY IDOCK:   -5.19 KCAL/MOL
REMARK 922        TOTAL FREE ENERGY PREDICTED BY IDOCK:   -8.84 KCAL/MOL
REMARK 923 INTER-LIGAND FREE ENERGY PREDICTED BY IDOCK:   -7.75 KCAL/MOL
REMARK 924 INTRA-LIGAND FREE ENERGY PREDICTED BY IDOCK:   -1.09 KCAL/MOL
REMARK 927      BINDING AFFINITY PREDICTED BY RF-SCORE:    0.00 PKD
ROOT
HETATM    1  C   UNL     1     -12.426  12.954  65.290  1.00  0.00    -0.493 C  
HETATM    2  O   UNL     1     -11.232  13.122  66.057  1.00  0.00    -0.286 OA 
ENDROOT
BRANCH   2   3
HETATM    3  C   UNL     1     -11.338  14.047  67.063  1.00  0.00    -0.330 A  
HETATM    4  C   UNL     1     -10.859  15.327  66.787  1.00  0.00    -0.312 A  
HETATM    5  O   UNL     1     -10.314  15.613  65.565  1.00  0.00    -0.342 OA 
HETATM    6  C   UNL     1     -10.886  16.335  67.748  1.00  0.00    -0.315 A  
HETATM    7  C   UNL     1     -11.399  16.051  69.014  1.00  0.00    -0.363 A  
HETATM    8  H   UNL     1      -9.989  16.485  65.377  1.00  0.00     0.000 HD 
HETATM    9  C   UNL     1     -11.907  14.780  69.310  1.00  0.00    -0.352 A  
HETATM   10  C   UNL     1     -11.894  13.787  68.315  1.00  0.00    -0.413 A  
BRANCH   9  11
HETATM   11  C   UNL     1     -12.388  14.425  70.691  1.00  0.00    -0.351 C  
BRANCH  11  12
HETATM   12  N   UNL     1     -12.488  13.008  70.876  1.00  0.00    -0.357 N  
HETATM   13  C   UNL     1     -13.244  12.463  71.887  1.00  0.00    -0.382 C  
HETATM   14  H   UNL     1     -11.987  12.387  70.240  1.00  0.00     0.000 HD 
HETATM   15  O   UNL     1     -13.891  13.114  72.686  1.00  0.00    -0.691 OA 
BRANCH  13  16
HETATM   16  C   UNL     1     -13.114  10.965  71.950  1.00  0.00    -0.537 C  
BRANCH  16  17
HETATM   17  C   UNL     1     -12.515  10.356  70.689  1.00  0.00    -0.437 C  
BRANCH  17  18
HETATM   18  C   UNL     1     -11.092   9.815  70.888  1.00  0.00    -0.428 C  
BRANCH  18  19
HETATM   19  C   UNL     1     -10.314   9.490  69.606  1.00  0.00    -0.236 C  
BRANCH  19  20
HETATM   20  C   UNL     1      -9.828  10.695  68.847  1.00  0.00    -0.210 C  
HETATM   21  C   UNL     1      -9.481  10.730  67.548  1.00  0.00    -0.168 C  
HETATM   22  C   UNL     1      -9.650   9.614  66.548  1.00  0.00    -0.252 C  
HETATM   23  C   UNL     1      -8.398   8.746  66.451  1.00  0.00    -0.117 C  
HETATM   24  C   UNL     1     -10.013  10.190  65.181  1.00  0.00    -0.379 C  
ENDBRANCH  19  20
ENDBRANCH  18  19
ENDBRANCH  17  18
ENDBRANCH  16  17
ENDBRANCH  13  16
ENDBRANCH  11  12
ENDBRANCH   9  11
ENDBRANCH   2   3
TORSDOF 8
ENDMDL
MODEL       85
REMARK 921   NORMALIZED FREE ENERGY PREDICTED BY IDOCK:   -5.18 KCAL/MOL
REMARK 922        TOTAL FREE ENERGY PREDICTED BY IDOCK:   -8.82 KCAL/MOL
REMARK 923 INTER-LIGAND FREE ENERGY PREDICTED BY IDOCK:   -7.38 KCAL/MOL
REMARK 924 INTRA-LIGAND FREE ENERGY PREDICTED BY IDOCK:   -1.44 KCAL/MOL
REMARK 927      BINDING AFFINITY PREDICTED BY RF-SCORE:    0.00 PKD
ROOT
HETATM    1  C   UNL     1     -11.752  12.526  69.037  1.00  0.00    -0.318 C  
HETATM    2  O   UNL     1     -12.040  11.227  68.517  1.00  0.00    -0.573 OA 
ENDROOT
BRANCH   2   3
HETATM    3  C   UNL     1     -11.377  10.927  67.356  1.00  0.00    -0.195 A  
HETATM    4  C   UNL     1     -10.715   9.700  67.313  1.00  0.00    -0.214 A  
HETATM    5  O   UNL     1     -10.745   8.861  68.393  1.00  0.00    -0.375 OA 
HETATM    6  C   UNL     1      -9.982   9.310  66.196  1.00  0.00    -0.348 A  
HETATM    7  C   UNL     1      -9.904  10.171  65.100  1.00  0.00    -0.394 A  
HETATM    8  H   UNL     1     -10.295   8.025  68.363  1.00  0.00     0.000 HD 
HETATM    9  C   UNL     1     -10.577  11.399  65.109  1.00  0.00    -0.352 A  
HETATM   10  C   UNL     1     -11.334  11.759  66.237  1.00  0.00    -0.350 A  
BRANCH   9  11
HETATM   11  C   UNL     1     -10.441  12.380  63.976  1.00  0.00    -0.416 C  
BRANCH  11  12
HETATM   12  N   UNL     1     -10.525  13.737  64.430  1.00  0.00    -0.609 N  
HETATM   13  C   UNL     1     -11.644  14.505  64.207  1.00  0.00    -0.238 C  
HETATM   14  H   UNL     1      -9.735  14.143  64.931  1.00  0.00     0.000 HD 
HETATM   15  O   UNL     1     -12.643  14.111  63.633  1.00  0.00    -0.831 OA 
BRANCH  13  16
HETATM   16  C   UNL     1     -11.462  15.923  64.676  1.00  0.00    -0.265 C  
BRANCH  16  17
HETATM   17  C   UNL     1     -10.199  16.130  65.502  1.00  0.00    -0.360 C  
BRANCH  17  18
HETATM   18  C   UNL     1     -10.465  16.762  66.876  1.00  0.00    -0.269 C  
BRANCH  18  19
HETATM   19  C   UNL     1     -10.744  15.779  68.021  1.00  0.00    -0.296 C  
BRANCH  19  20
HETATM   20  C   UNL     1      -9.685  15.748  69.091  1.00  0.00    -0.250 C  
HETATM   21  C   UNL     1      -8.478  15.161  68.999  1.00  0.00    -0.214 C  
HETATM   22  C   UNL     1      -7.876  14.547  67.759  1.00  0.00    -0.171 C  
HETATM   23  C   UNL     1      -8.172  13.052  67.667  1.00  0.00    -0.171 C  
HETATM   24  C   UNL     1      -6.371  14.802  67.730  1.00  0.00    -0.172 C  
ENDBRANCH  19  20
ENDBRANCH  18  19
ENDBRANCH  17  18
ENDBRANCH  16  17
ENDBRANCH  13  16
ENDBRANCH  11  12
ENDBRANCH   9  11
ENDBRANCH   2   3
TORSDOF 8
ENDMDL
MODEL       86
REMARK 921   NORMALIZED FREE ENERGY PREDICTED BY IDOCK:   -5.17 KCAL/MOL
REMARK 922        TOTAL FREE ENERGY PREDICTED BY IDOCK:   -8.80 KCAL/MOL
REMARK 923 INTER-LIGAND FREE ENERGY PREDICTED BY IDOCK:   -7.56 KCAL/MOL
REMARK 924 INTRA-LIGAND FREE ENERGY PREDICTED BY IDOCK:   -1.24 KCAL/MOL
REMARK 927      BINDING AFFINITY PREDICTED BY RF-SCORE:    0.00 PKD
ROOT
HETATM    1  C   UNL     1     -13.251  12.691  71.955  1.00  0.00    -0.427 C  
HETATM    2  O   UNL     1     -13.797  11.382  72.130  1.00  0.00    -0.037 OA 
ENDROOT
BRANCH   2   3
HETATM    3  C   UNL     1     -12.932  10.368  71.813  1.00  0.00    -0.475 A  
HETATM    4  C   UNL     1     -13.245   9.102  72.310  1.00  0.00    -0.461 A  
HETATM    5  O   UNL     1     -14.364   8.917  73.073  1.00  0.00    -1.115 OA 
HETATM    6  C   UNL     1     -12.417   8.006  72.077  1.00  0.00    -0.357 A  
HETATM    7  C   UNL     1     -11.248   8.184  71.335  1.00  0.00    -0.297 A  
HETATM    8  H   UNL     1     -14.577   8.055  73.411  1.00  0.00     0.000 HD 
HETATM    9  C   UNL     1     -10.923   9.439  70.806  1.00  0.00    -0.371 A  
HETATM   10  C   UNL     1     -11.788  10.525  71.031  1.00  0.00    -0.438 A  
BRANCH   9  11
HETATM   11  C   UNL     1      -9.629   9.675  70.075  1.00  0.00    -0.243 C  
BRANCH  11  12
HETATM   12  N   UNL     1      -9.845  10.056  68.711  1.00  0.00    -0.161 N  
HETATM   13  C   UNL     1      -9.834   9.131  67.693  1.00  0.00    -0.172 C  
HETATM   14  H   UNL     1     -10.013  11.037  68.489  1.00  0.00     0.000 HD 
HETATM   15  O   UNL     1      -9.659   7.937  67.853  1.00  0.00    -0.143 OA 
BRANCH  13  16
HETATM   16  C   UNL     1      -9.977   9.774  66.340  1.00  0.00    -0.314 C  
BRANCH  16  17
HETATM   17  C   UNL     1      -9.763  11.282  66.361  1.00  0.00    -0.238 C  
BRANCH  17  18
HETATM   18  C   UNL     1     -10.861  12.065  65.626  1.00  0.00    -0.325 C  
BRANCH  18  19
HETATM   19  C   UNL     1     -11.528  13.192  66.426  1.00  0.00    -0.374 C  
BRANCH  19  20
HETATM   20  C   UNL     1     -11.895  12.823  67.838  1.00  0.00    -0.392 C  
HETATM   21  C   UNL     1     -11.833  13.630  68.912  1.00  0.00    -0.402 C  
HETATM   22  C   UNL     1     -11.531  15.109  68.902  1.00  0.00    -0.337 C  
HETATM   23  C   UNL     1     -10.042  15.383  69.103  1.00  0.00    -0.235 C  
HETATM   24  C   UNL     1     -12.358  15.817  69.973  1.00  0.00    -0.248 C  
ENDBRANCH  19  20
ENDBRANCH  18  19
ENDBRANCH  17  18
ENDBRANCH  16  17
ENDBRANCH  13  16
ENDBRANCH  11  12
ENDBRANCH   9  11
ENDBRANCH   2   3
TORSDOF 8
ENDMDL
MODEL       87
REMARK 921   NORMALIZED FREE ENERGY PREDICTED BY IDOCK:   -5.16 KCAL/MOL
REMARK 922        TOTAL FREE ENERGY PREDICTED BY IDOCK:   -8.79 KCAL/MOL
REMARK 923 INTER-LIGAND FREE ENERGY PREDICTED BY IDOCK:   -7.31 KCAL/MOL
REMARK 924 INTRA-LIGAND FREE ENERGY PREDICTED BY IDOCK:   -1.48 KCAL/MOL
REMARK 927      BINDING AFFINITY PREDICTED BY RF-SCORE:    0.00 PKD
ROOT
HETATM    1  C   UNL     1     -12.239  13.041  64.275  1.00  0.00    -0.396 C  
HETATM    2  O   UNL     1     -10.930  12.690  64.726  1.00  0.00    -0.282 OA 
ENDROOT
BRANCH   2   3
HETATM    3  C   UNL     1     -10.917  11.873  65.825  1.00  0.00    -0.311 A  
HETATM    4  C   UNL     1     -10.405  10.588  65.643  1.00  0.00    -0.204 A  
HETATM    5  O   UNL     1      -9.949  10.194  64.415  1.00  0.00    -0.336 OA 
HETATM    6  C   UNL     1     -10.376   9.664  66.684  1.00  0.00    -0.279 A  
HETATM    7  C   UNL     1     -10.876  10.033  67.934  1.00  0.00    -0.323 A  
HETATM    8  H   UNL     1      -9.600   9.320  64.291  1.00  0.00     0.000 HD 
HETATM    9  C   UNL     1     -11.374  11.323  68.149  1.00  0.00    -0.372 A  
HETATM   10  C   UNL     1     -11.368  12.248  67.091  1.00  0.00    -0.398 A  
BRANCH   9  11
HETATM   11  C   UNL     1     -11.995  11.719  69.462  1.00  0.00    -0.300 C  
BRANCH  11  12
HETATM   12  N   UNL     1     -12.516  10.588  70.171  1.00  0.00    -0.479 N  
HETATM   13  C   UNL     1     -13.077  10.713  71.420  1.00  0.00    -0.400 C  
HETATM   14  H   UNL     1     -12.470   9.665  69.737  1.00  0.00     0.000 HD 
HETATM   15  O   UNL     1     -13.193  11.768  72.016  1.00  0.00    -0.506 OA 
BRANCH  13  16
HETATM   16  C   UNL     1     -13.455   9.381  72.010  1.00  0.00    -0.522 C  
BRANCH  16  17
HETATM   17  C   UNL     1     -12.270   8.443  72.193  1.00  0.00    -0.434 C  
BRANCH  17  18
HETATM   18  C   UNL     1     -12.526   7.025  71.659  1.00  0.00    -0.413 C  
BRANCH  18  19
HETATM   19  C   UNL     1     -11.276   6.214  71.291  1.00  0.00    -0.348 C  
BRANCH  19  20
HETATM   20  C   UNL     1     -10.768   6.449  69.893  1.00  0.00    -0.332 C  
HETATM   21  C   UNL     1      -9.665   7.140  69.554  1.00  0.00    -0.157 C  
HETATM   22  C   UNL     1      -8.629   7.691  70.503  1.00  0.00    -0.137 C  
HETATM   23  C   UNL     1      -8.933   9.135  70.896  1.00  0.00    -0.298 C  
HETATM   24  C   UNL     1      -7.240   7.583  69.877  1.00  0.00    -0.080 C  
ENDBRANCH  19  20
ENDBRANCH  18  19
ENDBRANCH  17  18
ENDBRANCH  16  17
ENDBRANCH  13  16
ENDBRANCH  11  12
ENDBRANCH   9  11
ENDBRANCH   2   3
TORSDOF 8
ENDMDL
MODEL       88
REMARK 921   NORMALIZED FREE ENERGY PREDICTED BY IDOCK:   -5.15 KCAL/MOL
REMARK 922        TOTAL FREE ENERGY PREDICTED BY IDOCK:   -8.77 KCAL/MOL
REMARK 923 INTER-LIGAND FREE ENERGY PREDICTED BY IDOCK:   -7.66 KCAL/MOL
REMARK 924 INTRA-LIGAND FREE ENERGY PREDICTED BY IDOCK:   -1.11 KCAL/MOL
REMARK 927      BINDING AFFINITY PREDICTED BY RF-SCORE:    0.00 PKD
ROOT
HETATM    1  C   UNL     1      -9.964  14.274  68.749  1.00  0.00    -0.205 C  
HETATM    2  O   UNL     1     -11.282  14.805  68.897  1.00  0.00    -0.241 OA 
ENDROOT
BRANCH   2   3
HETATM    3  C   UNL     1     -11.893  14.470  70.076  1.00  0.00    -0.313 A  
HETATM    4  C   UNL     1     -12.008  15.481  71.030  1.00  0.00    -0.381 A  
HETATM    5  O   UNL     1     -11.524  16.733  70.771  1.00  0.00    -0.483 OA 
HETATM    6  C   UNL     1     -12.581  15.241  72.277  1.00  0.00    -0.436 A  
HETATM    7  C   UNL     1     -13.043  13.958  72.576  1.00  0.00    -0.533 A  
HETATM    8  H   UNL     1     -11.602  17.422  71.421  1.00  0.00     0.000 HD 
HETATM    9  C   UNL     1     -12.960  12.931  71.628  1.00  0.00    -0.410 A  
HETATM   10  C   UNL     1     -12.403  13.204  70.366  1.00  0.00    -0.351 A  
BRANCH   9  11
HETATM   11  C   UNL     1     -13.373  11.521  71.955  1.00  0.00    -0.303 C  
BRANCH  11  12
HETATM   12  N   UNL     1     -12.476  10.556  71.393  1.00  0.00    -0.397 N  
HETATM   13  C   UNL     1     -12.444   9.255  71.838  1.00  0.00    -0.382 C  
HETATM   14  H   UNL     1     -11.844  10.841  70.645  1.00  0.00     0.000 HD 
HETATM   15  O   UNL     1     -13.165   8.812  72.713  1.00  0.00    -0.355 OA 
BRANCH  13  16
HETATM   16  C   UNL     1     -11.353   8.455  71.178  1.00  0.00    -0.310 C  
BRANCH  16  17
HETATM   17  C   UNL     1     -11.702   6.983  71.006  1.00  0.00    -0.375 C  
BRANCH  17  18
HETATM   18  C   UNL     1     -11.275   6.410  69.646  1.00  0.00    -0.483 C  
BRANCH  18  19
HETATM   19  C   UNL     1     -10.195   7.200  68.896  1.00  0.00    -0.188 C  
BRANCH  19  20
HETATM   20  C   UNL     1     -10.473   7.403  67.430  1.00  0.00    -0.366 C  
HETATM   21  C   UNL     1     -10.489   8.579  66.779  1.00  0.00    -0.308 C  
HETATM   22  C   UNL     1     -10.083   9.918  67.343  1.00  0.00    -0.254 C  
HETATM   23  C   UNL     1     -11.277  10.673  67.922  1.00  0.00    -0.376 C  
HETATM   24  C   UNL     1      -9.391  10.750  66.265  1.00  0.00    -0.205 C  
ENDBRANCH  19  20
ENDBRANCH  18  19
ENDBRANCH  17  18
ENDBRANCH  16  17
ENDBRANCH  13  16
ENDBRANCH  11  12
ENDBRANCH   9  11
ENDBRANCH   2   3
TORSDOF 8
ENDMDL
MODEL       89
REMARK 921   NORMALIZED FREE ENERGY PREDICTED BY IDOCK:   -5.14 KCAL/MOL
REMARK 922        TOTAL FREE ENERGY PREDICTED BY IDOCK:   -8.76 KCAL/MOL
REMARK 923 INTER-LIGAND FREE ENERGY PREDICTED BY IDOCK:   -7.01 KCAL/MOL
REMARK 924 INTRA-LIGAND FREE ENERGY PREDICTED BY IDOCK:   -1.75 KCAL/MOL
REMARK 927      BINDING AFFINITY PREDICTED BY RF-SCORE:    0.00 PKD
ROOT
HETATM    1  C   UNL     1     -10.529  16.913  65.400  1.00  0.00    -0.154 C  
HETATM    2  O   UNL     1     -11.335  15.975  64.684  1.00  0.00    -0.431 OA 
ENDROOT
BRANCH   2   3
HETATM    3  C   UNL     1     -11.562  14.804  65.357  1.00  0.00    -0.316 A  
HETATM    4  C   UNL     1     -12.023  13.727  64.599  1.00  0.00    -0.416 A  
HETATM    5  O   UNL     1     -12.230  13.867  63.255  1.00  0.00    -1.061 OA 
HETATM    6  C   UNL     1     -12.318  12.500  65.187  1.00  0.00    -0.496 A  
HETATM    7  C   UNL     1     -12.154  12.350  66.565  1.00  0.00    -0.179 A  
HETATM    8  H   UNL     1     -12.543  13.134  62.739  1.00  0.00     0.000 HD 
HETATM    9  C   UNL     1     -11.672  13.408  67.345  1.00  0.00    -0.415 A  
HETATM   10  C   UNL     1     -11.354  14.629  66.725  1.00  0.00    -0.360 A  
BRANCH   9  11
HETATM   11  C   UNL     1     -11.566  13.299  68.843  1.00  0.00    -0.314 C  
BRANCH  11  12
HETATM   12  N   UNL     1     -10.757  12.186  69.242  1.00  0.00    -0.437 N  
HETATM   13  C   UNL     1     -11.314  11.007  69.679  1.00  0.00    -0.292 C  
HETATM   14  H   UNL     1      -9.741  12.270  69.201  1.00  0.00     0.000 HD 
HETATM   15  O   UNL     1     -12.512  10.800  69.750  1.00  0.00    -0.309 OA 
BRANCH  13  16
HETATM   16  C   UNL     1     -10.274  10.024  70.144  1.00  0.00    -0.297 C  
BRANCH  16  17
HETATM   17  C   UNL     1      -8.996  10.060  69.318  1.00  0.00    -0.186 C  
BRANCH  17  18
HETATM   18  C   UNL     1      -8.497   8.668  68.904  1.00  0.00    -0.129 C  
BRANCH  18  19
HETATM   19  C   UNL     1      -8.538   8.362  67.400  1.00  0.00    -0.124 C  
BRANCH  19  20
HETATM   20  C   UNL     1      -9.864   8.638  66.743  1.00  0.00    -0.322 C  
HETATM   21  C   UNL     1     -10.093   9.519  65.752  1.00  0.00    -0.223 C  
HETATM   22  C   UNL     1      -9.048  10.298  64.992  1.00  0.00    -0.244 C  
HETATM   23  C   UNL     1      -8.799  11.669  65.618  1.00  0.00     0.050 C  
HETATM   24  C   UNL     1      -9.466  10.441  63.530  1.00  0.00    -0.356 C  
ENDBRANCH  19  20
ENDBRANCH  18  19
ENDBRANCH  17  18
ENDBRANCH  16  17
ENDBRANCH  13  16
ENDBRANCH  11  12
ENDBRANCH   9  11
ENDBRANCH   2   3
TORSDOF 8
ENDMDL
MODEL       90
REMARK 921   NORMALIZED FREE ENERGY PREDICTED BY IDOCK:   -5.14 KCAL/MOL
REMARK 922        TOTAL FREE ENERGY PREDICTED BY IDOCK:   -8.76 KCAL/MOL
REMARK 923 INTER-LIGAND FREE ENERGY PREDICTED BY IDOCK:   -7.86 KCAL/MOL
REMARK 924 INTRA-LIGAND FREE ENERGY PREDICTED BY IDOCK:   -0.90 KCAL/MOL
REMARK 927      BINDING AFFINITY PREDICTED BY RF-SCORE:    0.00 PKD
ROOT
HETATM    1  C   UNL     1     -12.893  12.516  64.441  1.00  0.00    -0.275 C  
HETATM    2  O   UNL     1     -12.241  12.097  65.641  1.00  0.00    -0.571 OA 
ENDROOT
BRANCH   2   3
HETATM    3  C   UNL     1     -11.586  13.103  66.302  1.00  0.00    -0.356 A  
HETATM    4  C   UNL     1     -10.336  13.469  65.803  1.00  0.00    -0.292 A  
HETATM    5  O   UNL     1      -9.818  12.835  64.707  1.00  0.00    -0.503 OA 
HETATM    6  C   UNL     1      -9.570  14.456  66.418  1.00  0.00    -0.320 A  
HETATM    7  C   UNL     1     -10.064  15.085  67.561  1.00  0.00    -0.228 A  
HETATM    8  H   UNL     1      -8.967  13.085  64.367  1.00  0.00     0.000 HD 
HETATM    9  C   UNL     1     -11.325  14.751  68.070  1.00  0.00    -0.332 A  
HETATM   10  C   UNL     1     -12.093  13.772  67.417  1.00  0.00    -0.378 A  
BRANCH   9  11
HETATM   11  C   UNL     1     -11.843  15.354  69.348  1.00  0.00    -0.351 C  
BRANCH  11  12
HETATM   12  N   UNL     1     -12.382  14.360  70.229  1.00  0.00    -0.332 N  
HETATM   13  C   UNL     1     -13.415  14.643  71.091  1.00  0.00    -0.366 C  
HETATM   14  H   UNL     1     -11.989  13.419  70.216  1.00  0.00     0.000 HD 
HETATM   15  O   UNL     1     -13.963  15.727  71.173  1.00  0.00    -0.508 OA 
BRANCH  13  16
HETATM   16  C   UNL     1     -13.740  13.480  71.990  1.00  0.00    -0.568 C  
BRANCH  16  17
HETATM   17  C   UNL     1     -12.666  12.400  71.993  1.00  0.00    -0.119 C  
BRANCH  17  18
HETATM   18  C   UNL     1     -13.172  11.035  71.504  1.00  0.00    -0.400 C  
BRANCH  18  19
HETATM   19  C   UNL     1     -12.491  10.480  70.246  1.00  0.00    -0.345 C  
BRANCH  19  20
HETATM   20  C   UNL     1     -10.988  10.424  70.322  1.00  0.00    -0.353 C  
HETATM   21  C   UNL     1     -10.255   9.417  70.830  1.00  0.00    -0.373 C  
HETATM   22  C   UNL     1     -10.774   8.077  71.288  1.00  0.00    -0.265 C  
HETATM   23  C   UNL     1     -11.092   8.073  72.781  1.00  0.00    -0.448 C  
HETATM   24  C   UNL     1      -9.763   6.984  70.949  1.00  0.00    -0.176 C  
ENDBRANCH  19  20
ENDBRANCH  18  19
ENDBRANCH  17  18
ENDBRANCH  16  17
ENDBRANCH  13  16
ENDBRANCH  11  12
ENDBRANCH   9  11
ENDBRANCH   2   3
TORSDOF 8
ENDMDL
MODEL       91
REMARK 921   NORMALIZED FREE ENERGY PREDICTED BY IDOCK:   -5.14 KCAL/MOL
REMARK 922        TOTAL FREE ENERGY PREDICTED BY IDOCK:   -8.75 KCAL/MOL
REMARK 923 INTER-LIGAND FREE ENERGY PREDICTED BY IDOCK:   -7.63 KCAL/MOL
REMARK 924 INTRA-LIGAND FREE ENERGY PREDICTED BY IDOCK:   -1.12 KCAL/MOL
REMARK 927      BINDING AFFINITY PREDICTED BY RF-SCORE:    0.00 PKD
ROOT
HETATM    1  C   UNL     1     -11.712   6.726  70.745  1.00  0.00    -0.386 C  
HETATM    2  O   UNL     1     -12.463   7.576  71.613  1.00  0.00    -0.316 OA 
ENDROOT
BRANCH   2   3
HETATM    3  C   UNL     1     -12.351   8.911  71.325  1.00  0.00    -0.291 A  
HETATM    4  C   UNL     1     -13.152   9.780  72.065  1.00  0.00    -0.452 A  
HETATM    5  O   UNL     1     -14.000   9.293  73.021  1.00  0.00    -0.978 OA 
HETATM    6  C   UNL     1     -13.142  11.153  71.831  1.00  0.00    -0.513 A  
HETATM    7  C   UNL     1     -12.316  11.665  70.830  1.00  0.00    -0.454 A  
HETATM    8  H   UNL     1     -14.545   9.885  73.525  1.00  0.00     0.000 HD 
HETATM    9  C   UNL     1     -11.485  10.817  70.088  1.00  0.00    -0.415 A  
HETATM   10  C   UNL     1     -11.491   9.438  70.360  1.00  0.00    -0.272 A  
BRANCH   9  11
HETATM   11  C   UNL     1     -10.648  11.333  68.948  1.00  0.00    -0.207 C  
BRANCH  11  12
HETATM   12  N   UNL     1     -11.085  12.624  68.505  1.00  0.00    -0.250 N  
HETATM   13  C   UNL     1     -11.764  12.789  67.321  1.00  0.00    -0.378 C  
HETATM   14  H   UNL     1     -10.886  13.441  69.082  1.00  0.00     0.000 HD 
HETATM   15  O   UNL     1     -12.063  11.879  66.569  1.00  0.00    -0.568 OA 
BRANCH  13  16
HETATM   16  C   UNL     1     -12.025  14.239  67.013  1.00  0.00    -0.463 C  
BRANCH  16  17
HETATM   17  C   UNL     1     -11.646  15.176  68.151  1.00  0.00    -0.358 C  
BRANCH  17  18
HETATM   18  C   UNL     1     -10.873  16.420  67.687  1.00  0.00    -0.280 C  
BRANCH  18  19
HETATM   19  C   UNL     1      -9.367  16.419  67.979  1.00  0.00    -0.216 C  
BRANCH  19  20
HETATM   20  C   UNL     1      -8.548  15.581  67.034  1.00  0.00    -0.262 C  
HETATM   21  C   UNL     1      -7.662  14.628  67.380  1.00  0.00    -0.226 C  
HETATM   22  C   UNL     1      -7.419  14.098  68.771  1.00  0.00    -0.129 C  
HETATM   23  C   UNL     1      -6.288  14.847  69.472  1.00  0.00    -0.131 C  
HETATM   24  C   UNL     1      -7.119  12.601  68.712  1.00  0.00    -0.087 C  
ENDBRANCH  19  20
ENDBRANCH  18  19
ENDBRANCH  17  18
ENDBRANCH  16  17
ENDBRANCH  13  16
ENDBRANCH  11  12
ENDBRANCH   9  11
ENDBRANCH   2   3
TORSDOF 8
ENDMDL
MODEL       92
REMARK 921   NORMALIZED FREE ENERGY PREDICTED BY IDOCK:   -5.13 KCAL/MOL
REMARK 922        TOTAL FREE ENERGY PREDICTED BY IDOCK:   -8.75 KCAL/MOL
REMARK 923 INTER-LIGAND FREE ENERGY PREDICTED BY IDOCK:   -7.48 KCAL/MOL
REMARK 924 INTRA-LIGAND FREE ENERGY PREDICTED BY IDOCK:   -1.27 KCAL/MOL
REMARK 927      BINDING AFFINITY PREDICTED BY RF-SCORE:    0.00 PKD
ROOT
HETATM    1  C   UNL     1      -6.414  20.184  67.861  1.00  0.00    -0.250 C  
HETATM    2  O   UNL     1      -7.710  20.473  67.335  1.00  0.00    -0.319 OA 
ENDROOT
BRANCH   2   3
HETATM    3  C   UNL     1      -8.567  19.403  67.337  1.00  0.00    -0.297 A  
HETATM    4  C   UNL     1      -9.588  19.418  66.387  1.00  0.00    -0.377 A  
HETATM    5  O   UNL     1      -9.702  20.464  65.513  1.00  0.00    -0.551 OA 
HETATM    6  C   UNL     1     -10.534  18.398  66.322  1.00  0.00    -0.421 A  
HETATM    7  C   UNL     1     -10.459  17.344  67.234  1.00  0.00    -0.321 A  
HETATM    8  H   UNL     1     -10.397  20.473  64.865  1.00  0.00     0.000 HD 
HETATM    9  C   UNL     1      -9.431  17.294  68.183  1.00  0.00    -0.278 A  
HETATM   10  C   UNL     1      -8.471  18.320  68.211  1.00  0.00    -0.309 A  
BRANCH   9  11
HETATM   11  C   UNL     1      -9.377  16.213  69.229  1.00  0.00    -0.227 C  
BRANCH  11  12
HETATM   12  N   UNL     1     -10.513  15.344  69.160  1.00  0.00    -0.226 N  
HETATM   13  C   UNL     1     -11.430  15.271  70.183  1.00  0.00    -0.292 C  
HETATM   14  H   UNL     1     -10.646  14.764  68.331  1.00  0.00     0.000 HD 
HETATM   15  O   UNL     1     -11.371  15.929  71.204  1.00  0.00    -0.371 OA 
BRANCH  13  16
HETATM   16  C   UNL     1     -12.475  14.216  69.935  1.00  0.00    -0.313 C  
BRANCH  16  17
HETATM   17  C   UNL     1     -12.315  12.987  70.820  1.00  0.00    -0.394 C  
BRANCH  17  18
HETATM   18  C   UNL     1     -12.035  11.699  70.033  1.00  0.00    -0.429 C  
BRANCH  18  19
HETATM   19  C   UNL     1     -10.971  11.806  68.932  1.00  0.00    -0.288 C  
BRANCH  19  20
HETATM   20  C   UNL     1     -11.367  11.187  67.618  1.00  0.00    -0.356 C  
HETATM   21  C   UNL     1     -11.487  11.827  66.441  1.00  0.00    -0.309 C  
HETATM   22  C   UNL     1     -11.104  13.259  66.161  1.00  0.00    -0.300 C  
HETATM   23  C   UNL     1     -12.287  14.207  66.348  1.00  0.00    -0.431 C  
HETATM   24  C   UNL     1     -10.534  13.380  64.749  1.00  0.00    -0.419 C  
ENDBRANCH  19  20
ENDBRANCH  18  19
ENDBRANCH  17  18
ENDBRANCH  16  17
ENDBRANCH  13  16
ENDBRANCH  11  12
ENDBRANCH   9  11
ENDBRANCH   2   3
TORSDOF 8
ENDMDL
MODEL       93
REMARK 921   NORMALIZED FREE ENERGY PREDICTED BY IDOCK:   -5.13 KCAL/MOL
REMARK 922        TOTAL FREE ENERGY PREDICTED BY IDOCK:   -8.74 KCAL/MOL
REMARK 923 INTER-LIGAND FREE ENERGY PREDICTED BY IDOCK:   -7.59 KCAL/MOL
REMARK 924 INTRA-LIGAND FREE ENERGY PREDICTED BY IDOCK:   -1.15 KCAL/MOL
REMARK 927      BINDING AFFINITY PREDICTED BY RF-SCORE:    0.00 PKD
ROOT
HETATM    1  C   UNL     1     -11.305   6.479  69.217  1.00  0.00    -0.294 C  
HETATM    2  O   UNL     1     -10.988   6.946  70.530  1.00  0.00    -0.247 OA 
ENDROOT
BRANCH   2   3
HETATM    3  C   UNL     1     -11.633   8.102  70.883  1.00  0.00    -0.267 A  
HETATM    4  C   UNL     1     -12.721   7.972  71.747  1.00  0.00    -0.329 A  
HETATM    5  O   UNL     1     -13.101   6.738  72.197  1.00  0.00    -0.548 OA 
HETATM    6  C   UNL     1     -13.469   9.078  72.144  1.00  0.00    -0.514 A  
HETATM    7  C   UNL     1     -13.123  10.340  71.661  1.00  0.00    -0.553 A  
HETATM    8  H   UNL     1     -13.841   6.649  72.786  1.00  0.00     0.000 HD 
HETATM    9  C   UNL     1     -12.021  10.501  70.811  1.00  0.00    -0.472 A  
HETATM   10  C   UNL     1     -11.265   9.375  70.446  1.00  0.00    -0.309 A  
BRANCH   9  11
HETATM   11  C   UNL     1     -11.679  11.838  70.210  1.00  0.00    -0.228 C  
BRANCH  11  12
HETATM   12  N   UNL     1     -11.901  11.862  68.795  1.00  0.00    -0.319 N  
HETATM   13  C   UNL     1     -10.857  11.918  67.901  1.00  0.00    -0.213 C  
HETATM   14  H   UNL     1     -12.857  11.837  68.441  1.00  0.00     0.000 HD 
HETATM   15  O   UNL     1      -9.683  11.937  68.219  1.00  0.00    -0.192 OA 
BRANCH  13  16
HETATM   16  C   UNL     1     -11.333  12.042  66.479  1.00  0.00    -0.413 C  
BRANCH  16  17
HETATM   17  C   UNL     1     -12.383  13.128  66.285  1.00  0.00    -0.346 C  
BRANCH  17  18
HETATM   18  C   UNL     1     -12.076  14.071  65.111  1.00  0.00    -0.418 C  
BRANCH  18  19
HETATM   19  C   UNL     1     -10.673  14.693  65.102  1.00  0.00    -0.430 C  
BRANCH  19  20
HETATM   20  C   UNL     1     -10.639  16.162  65.430  1.00  0.00    -0.399 C  
HETATM   21  C   UNL     1     -10.478  16.700  66.652  1.00  0.00    -0.258 C  
HETATM   22  C   UNL     1     -10.146  15.954  67.920  1.00  0.00    -0.235 C  
HETATM   23  C   UNL     1     -11.405  15.563  68.692  1.00  0.00    -0.348 C  
HETATM   24  C   UNL     1      -9.219  16.796  68.793  1.00  0.00    -0.260 C  
ENDBRANCH  19  20
ENDBRANCH  18  19
ENDBRANCH  17  18
ENDBRANCH  16  17
ENDBRANCH  13  16
ENDBRANCH  11  12
ENDBRANCH   9  11
ENDBRANCH   2   3
TORSDOF 8
ENDMDL
MODEL       94
REMARK 921   NORMALIZED FREE ENERGY PREDICTED BY IDOCK:   -5.13 KCAL/MOL
REMARK 922        TOTAL FREE ENERGY PREDICTED BY IDOCK:   -8.74 KCAL/MOL
REMARK 923 INTER-LIGAND FREE ENERGY PREDICTED BY IDOCK:   -7.56 KCAL/MOL
REMARK 924 INTRA-LIGAND FREE ENERGY PREDICTED BY IDOCK:   -1.18 KCAL/MOL
REMARK 927      BINDING AFFINITY PREDICTED BY RF-SCORE:    0.00 PKD
ROOT
HETATM    1  C   UNL     1     -12.528  11.987  70.857  1.00  0.00    -0.288 C  
HETATM    2  O   UNL     1     -12.883  11.045  71.870  1.00  0.00    -0.416 OA 
ENDROOT
BRANCH   2   3
HETATM    3  C   UNL     1     -12.544   9.751  71.575  1.00  0.00    -0.398 A  
HETATM    4  C   UNL     1     -13.260   8.751  72.234  1.00  0.00    -0.412 A  
HETATM    5  O   UNL     1     -14.243   9.079  73.127  1.00  0.00    -1.142 OA 
HETATM    6  C   UNL     1     -12.974   7.402  72.035  1.00  0.00    -0.200 A  
HETATM    7  C   UNL     1     -11.946   7.048  71.160  1.00  0.00    -0.398 A  
HETATM    8  H   UNL     1     -14.730   8.399  73.575  1.00  0.00     0.000 HD 
HETATM    9  C   UNL     1     -11.228   8.032  70.469  1.00  0.00    -0.252 A  
HETATM   10  C   UNL     1     -11.552   9.385  70.665  1.00  0.00    -0.330 A  
BRANCH   9  11
HETATM   11  C   UNL     1     -10.061   7.680  69.585  1.00  0.00    -0.194 C  
BRANCH  11  12
HETATM   12  N   UNL     1      -9.785   8.709  68.627  1.00  0.00    -0.160 N  
HETATM   13  C   UNL     1     -10.114   8.567  67.300  1.00  0.00    -0.251 C  
HETATM   14  H   UNL     1      -9.334   9.569  68.938  1.00  0.00     0.000 HD 
HETATM   15  O   UNL     1     -10.668   7.589  66.832  1.00  0.00    -0.352 OA 
BRANCH  13  16
HETATM   16  C   UNL     1      -9.634   9.725  66.468  1.00  0.00    -0.249 C  
BRANCH  16  17
HETATM   17  C   UNL     1      -8.426  10.436  67.061  1.00  0.00    -0.127 C  
BRANCH  17  18
HETATM   18  C   UNL     1      -8.672  11.925  67.347  1.00  0.00    -0.166 C  
BRANCH  18  19
HETATM   19  C   UNL     1     -10.095  12.432  67.072  1.00  0.00    -0.223 C  
BRANCH  19  20
HETATM   20  C   UNL     1     -10.161  13.691  66.250  1.00  0.00    -0.296 C  
HETATM   21  C   UNL     1     -10.577  13.787  64.974  1.00  0.00    -0.402 C  
HETATM   22  C   UNL     1     -11.204  12.686  64.154  1.00  0.00    -0.437 C  
HETATM   23  C   UNL     1     -10.162  11.922  63.342  1.00  0.00    -0.478 C  
HETATM   24  C   UNL     1     -12.281  13.267  63.240  1.00  0.00    -0.387 C  
ENDBRANCH  19  20
ENDBRANCH  18  19
ENDBRANCH  17  18
ENDBRANCH  16  17
ENDBRANCH  13  16
ENDBRANCH  11  12
ENDBRANCH   9  11
ENDBRANCH   2   3
TORSDOF 8
ENDMDL
MODEL       95
REMARK 921   NORMALIZED FREE ENERGY PREDICTED BY IDOCK:   -5.10 KCAL/MOL
REMARK 922        TOTAL FREE ENERGY PREDICTED BY IDOCK:   -8.70 KCAL/MOL
REMARK 923 INTER-LIGAND FREE ENERGY PREDICTED BY IDOCK:   -7.75 KCAL/MOL
REMARK 924 INTRA-LIGAND FREE ENERGY PREDICTED BY IDOCK:   -0.95 KCAL/MOL
REMARK 927      BINDING AFFINITY PREDICTED BY RF-SCORE:    0.00 PKD
ROOT
HETATM    1  C   UNL     1     -10.839   6.902  69.118  1.00  0.00    -0.228 C  
HETATM    2  O   UNL     1     -10.679   7.252  70.494  1.00  0.00    -0.223 OA 
ENDROOT
BRANCH   2   3
HETATM    3  C   UNL     1     -11.465   8.298  70.901  1.00  0.00    -0.274 A  
HETATM    4  C   UNL     1     -12.432   8.014  71.866  1.00  0.00    -0.330 A  
HETATM    5  O   UNL     1     -12.564   6.745  72.359  1.00  0.00    -0.519 OA 
HETATM    6  C   UNL     1     -13.307   8.995  72.327  1.00  0.00    -0.523 A  
HETATM    7  C   UNL     1     -13.216  10.286  71.805  1.00  0.00    -0.534 A  
HETATM    8  H   UNL     1     -13.221   6.552  73.016  1.00  0.00     0.000 HD 
HETATM    9  C   UNL     1     -12.240  10.602  70.851  1.00  0.00    -0.497 A  
HETATM   10  C   UNL     1     -11.349   9.603  70.422  1.00  0.00    -0.337 A  
BRANCH   9  11
HETATM   11  C   UNL     1     -12.175  11.963  70.212  1.00  0.00    -0.271 C  
BRANCH  11  12
HETATM   12  N   UNL     1     -10.971  12.143  69.456  1.00  0.00    -0.462 N  
HETATM   13  C   UNL     1     -10.992  12.293  68.089  1.00  0.00    -0.231 C  
HETATM   14  H   UNL     1     -10.076  12.160  69.944  1.00  0.00     0.000 HD 
HETATM   15  O   UNL     1     -12.007  12.303  67.416  1.00  0.00    -0.530 OA 
BRANCH  13  16
HETATM   16  C   UNL     1      -9.608  12.359  67.503  1.00  0.00    -0.185 C  
BRANCH  16  17
HETATM   17  C   UNL     1      -8.867  13.645  67.843  1.00  0.00    -0.188 C  
BRANCH  17  18
HETATM   18  C   UNL     1      -8.799  14.638  66.674  1.00  0.00    -0.240 C  
BRANCH  18  19
HETATM   19  C   UNL     1     -10.080  15.437  66.399  1.00  0.00    -0.292 C  
BRANCH  19  20
HETATM   20  C   UNL     1     -10.761  15.970  67.631  1.00  0.00    -0.320 C  
HETATM   21  C   UNL     1     -10.564  17.178  68.188  1.00  0.00    -0.380 C  
HETATM   22  C   UNL     1      -9.738  18.303  67.613  1.00  0.00    -0.306 C  
HETATM   23  C   UNL     1      -8.301  18.269  68.127  1.00  0.00    -0.296 C  
HETATM   24  C   UNL     1     -10.393  19.645  67.932  1.00  0.00    -0.583 C  
ENDBRANCH  19  20
ENDBRANCH  18  19
ENDBRANCH  17  18
ENDBRANCH  16  17
ENDBRANCH  13  16
ENDBRANCH  11  12
ENDBRANCH   9  11
ENDBRANCH   2   3
TORSDOF 8
ENDMDL
MODEL       96
REMARK 921   NORMALIZED FREE ENERGY PREDICTED BY IDOCK:   -5.10 KCAL/MOL
REMARK 922        TOTAL FREE ENERGY PREDICTED BY IDOCK:   -8.70 KCAL/MOL
REMARK 923 INTER-LIGAND FREE ENERGY PREDICTED BY IDOCK:   -7.49 KCAL/MOL
REMARK 924 INTRA-LIGAND FREE ENERGY PREDICTED BY IDOCK:   -1.21 KCAL/MOL
REMARK 927      BINDING AFFINITY PREDICTED BY RF-SCORE:    0.00 PKD
ROOT
HETATM    1  C   UNL     1      -9.980  15.526  66.285  1.00  0.00    -0.293 C  
HETATM    2  O   UNL     1     -11.065  14.597  66.326  1.00  0.00    -0.325 OA 
ENDROOT
BRANCH   2   3
HETATM    3  C   UNL     1     -10.952  13.565  65.433  1.00  0.00    -0.292 A  
HETATM    4  C   UNL     1     -11.814  13.591  64.336  1.00  0.00    -0.414 A  
HETATM    5  O   UNL     1     -12.716  14.609  64.191  1.00  0.00    -0.738 OA 
HETATM    6  C   UNL     1     -11.808  12.574  63.384  1.00  0.00    -0.587 A  
HETATM    7  C   UNL     1     -10.924  11.506  63.537  1.00  0.00    -0.453 A  
HETATM    8  H   UNL     1     -13.302  14.627  63.444  1.00  0.00     0.000 HD 
HETATM    9  C   UNL     1     -10.034  11.466  64.617  1.00  0.00    -0.315 A  
HETATM   10  C   UNL     1     -10.038  12.517  65.550  1.00  0.00    -0.282 A  
BRANCH   9  11
HETATM   11  C   UNL     1      -9.130  10.285  64.851  1.00  0.00    -0.213 C  
BRANCH  11  12
HETATM   12  N   UNL     1      -9.833   9.181  65.433  1.00  0.00    -0.424 N  
HETATM   13  C   UNL     1      -9.721   8.878  66.770  1.00  0.00    -0.219 C  
HETATM   14  H   UNL     1     -10.431   8.604  64.841  1.00  0.00     0.000 HD 
HETATM   15  O   UNL     1      -9.047   9.510  67.562  1.00  0.00    -0.130 OA 
BRANCH  13  16
HETATM   16  C   UNL     1     -10.461   7.618  67.131  1.00  0.00    -0.412 C  
BRANCH  16  17
HETATM   17  C   UNL     1      -9.564   6.537  67.718  1.00  0.00    -0.125 C  
BRANCH  17  18
HETATM   18  C   UNL     1     -10.331   5.479  68.526  1.00  0.00    -0.247 C  
BRANCH  18  19
HETATM   19  C   UNL     1     -10.264   5.624  70.052  1.00  0.00    -0.321 C  
BRANCH  19  20
HETATM   20  C   UNL     1     -11.436   6.344  70.663  1.00  0.00    -0.426 C  
HETATM   21  C   UNL     1     -11.468   7.635  71.040  1.00  0.00    -0.294 C  
HETATM   22  C   UNL     1     -10.395   8.665  70.790  1.00  0.00    -0.249 C  
HETATM   23  C   UNL     1      -9.417   8.758  71.960  1.00  0.00    -0.336 C  
HETATM   24  C   UNL     1     -11.033  10.024  70.511  1.00  0.00    -0.392 C  
ENDBRANCH  19  20
ENDBRANCH  18  19
ENDBRANCH  17  18
ENDBRANCH  16  17
ENDBRANCH  13  16
ENDBRANCH  11  12
ENDBRANCH   9  11
ENDBRANCH   2   3
TORSDOF 8
ENDMDL
MODEL       97
REMARK 921   NORMALIZED FREE ENERGY PREDICTED BY IDOCK:   -5.08 KCAL/MOL
REMARK 922        TOTAL FREE ENERGY PREDICTED BY IDOCK:   -8.67 KCAL/MOL
REMARK 923 INTER-LIGAND FREE ENERGY PREDICTED BY IDOCK:   -7.75 KCAL/MOL
REMARK 924 INTRA-LIGAND FREE ENERGY PREDICTED BY IDOCK:   -0.92 KCAL/MOL
REMARK 927      BINDING AFFINITY PREDICTED BY RF-SCORE:    0.00 PKD
ROOT
HETATM    1  C   UNL     1      -9.842  18.715  68.668  1.00  0.00    -0.385 C  
HETATM    2  O   UNL     1     -10.653  18.077  67.680  1.00  0.00    -0.400 OA 
ENDROOT
BRANCH   2   3
HETATM    3  C   UNL     1     -10.794  16.726  67.859  1.00  0.00    -0.311 A  
HETATM    4  C   UNL     1     -10.604  15.923  66.734  1.00  0.00    -0.309 A  
HETATM    5  O   UNL     1     -10.297  16.488  65.527  1.00  0.00    -0.509 OA 
HETATM    6  C   UNL     1     -10.756  14.540  66.795  1.00  0.00    -0.291 A  
HETATM    7  C   UNL     1     -11.110  13.949  68.009  1.00  0.00    -0.279 A  
HETATM    8  H   UNL     1     -10.167  15.941  64.761  1.00  0.00     0.000 HD 
HETATM    9  C   UNL     1     -11.285  14.730  69.158  1.00  0.00    -0.287 A  
HETATM   10  C   UNL     1     -11.100  16.121  69.079  1.00  0.00    -0.336 A  
BRANCH   9  11
HETATM   11  C   UNL     1     -11.749  14.127  70.457  1.00  0.00    -0.216 C  
BRANCH  11  12
HETATM   12  N   UNL     1     -12.027  12.727  70.329  1.00  0.00    -0.499 N  
HETATM   13  C   UNL     1     -12.802  12.058  71.246  1.00  0.00    -0.265 C  
HETATM   14  H   UNL     1     -11.640  12.214  69.537  1.00  0.00     0.000 HD 
HETATM   15  O   UNL     1     -13.321  12.579  72.216  1.00  0.00    -0.525 OA 
BRANCH  13  16
HETATM   16  C   UNL     1     -12.867  10.581  70.965  1.00  0.00    -0.502 C  
BRANCH  16  17
HETATM   17  C   UNL     1     -13.346   9.759  72.154  1.00  0.00    -0.527 C  
BRANCH  17  18
HETATM   18  C   UNL     1     -14.235   8.571  71.757  1.00  0.00    -0.525 C  
BRANCH  18  19
HETATM   19  C   UNL     1     -13.509   7.374  71.129  1.00  0.00    -0.244 C  
BRANCH  19  20
HETATM   20  C   UNL     1     -12.182   7.045  71.761  1.00  0.00    -0.387 C  
HETATM   21  C   UNL     1     -10.973   7.181  71.187  1.00  0.00    -0.272 C  
HETATM   22  C   UNL     1     -10.684   7.829  69.856  1.00  0.00    -0.245 C  
HETATM   23  C   UNL     1     -10.670   6.808  68.720  1.00  0.00    -0.280 C  
HETATM   24  C   UNL     1      -9.356   8.581  69.921  1.00  0.00    -0.159 C  
ENDBRANCH  19  20
ENDBRANCH  18  19
ENDBRANCH  17  18
ENDBRANCH  16  17
ENDBRANCH  13  16
ENDBRANCH  11  12
ENDBRANCH   9  11
ENDBRANCH   2   3
TORSDOF 8
ENDMDL
MODEL       98
REMARK 921   NORMALIZED FREE ENERGY PREDICTED BY IDOCK:   -5.06 KCAL/MOL
REMARK 922        TOTAL FREE ENERGY PREDICTED BY IDOCK:   -8.65 KCAL/MOL
REMARK 923 INTER-LIGAND FREE ENERGY PREDICTED BY IDOCK:   -7.65 KCAL/MOL
REMARK 924 INTRA-LIGAND FREE ENERGY PREDICTED BY IDOCK:   -0.99 KCAL/MOL
REMARK 927      BINDING AFFINITY PREDICTED BY RF-SCORE:    0.00 PKD
ROOT
HETATM    1  C   UNL     1      -9.728  11.405  63.263  1.00  0.00    -0.394 C  
HETATM    2  O   UNL     1     -11.125  11.312  63.549  1.00  0.00    -0.367 OA 
ENDROOT
BRANCH   2   3
HETATM    3  C   UNL     1     -11.544  12.130  64.565  1.00  0.00    -0.336 A  
HETATM    4  C   UNL     1     -12.150  13.330  64.193  1.00  0.00    -0.432 A  
HETATM    5  O   UNL     1     -12.301  13.646  62.871  1.00  0.00    -0.970 OA 
HETATM    6  C   UNL     1     -12.583  14.250  65.144  1.00  0.00    -0.384 A  
HETATM    7  C   UNL     1     -12.399  13.965  66.497  1.00  0.00    -0.447 A  
HETATM    8  H   UNL     1     -12.714  14.463  62.617  1.00  0.00     0.000 HD 
HETATM    9  C   UNL     1     -11.814  12.758  66.899  1.00  0.00    -0.440 A  
HETATM   10  C   UNL     1     -11.410  11.832  65.921  1.00  0.00    -0.324 A  
BRANCH   9  11
HETATM   11  C   UNL     1     -11.529  12.463  68.347  1.00  0.00    -0.310 C  
BRANCH  11  12
HETATM   12  N   UNL     1     -10.915  11.180  68.522  1.00  0.00    -0.201 N  
HETATM   13  C   UNL     1      -9.549  11.030  68.544  1.00  0.00    -0.187 C  
HETATM   14  H   UNL     1     -11.507  10.357  68.633  1.00  0.00     0.000 HD 
HETATM   15  O   UNL     1      -8.756  11.948  68.436  1.00  0.00    -0.173 OA 
BRANCH  13  16
HETATM   16  C   UNL     1      -9.137   9.585  68.631  1.00  0.00    -0.132 C  
BRANCH  16  17
HETATM   17  C   UNL     1     -10.144   8.631  68.005  1.00  0.00    -0.241 C  
BRANCH  17  18
HETATM   18  C   UNL     1      -9.724   7.156  68.093  1.00  0.00    -0.147 C  
BRANCH  18  19
HETATM   19  C   UNL     1      -9.928   6.483  69.457  1.00  0.00    -0.180 C  
BRANCH  19  20
HETATM   20  C   UNL     1     -11.363   6.182  69.798  1.00  0.00    -0.452 C  
HETATM   21  C   UNL     1     -12.136   6.867  70.660  1.00  0.00    -0.363 C  
HETATM   22  C   UNL     1     -11.777   8.163  71.346  1.00  0.00    -0.321 C  
HETATM   23  C   UNL     1     -11.147   7.922  72.716  1.00  0.00    -0.462 C  
HETATM   24  C   UNL     1     -13.016   9.047  71.470  1.00  0.00    -0.391 C  
ENDBRANCH  19  20
ENDBRANCH  18  19
ENDBRANCH  17  18
ENDBRANCH  16  17
ENDBRANCH  13  16
ENDBRANCH  11  12
ENDBRANCH   9  11
ENDBRANCH   2   3
TORSDOF 8
ENDMDL
MODEL       99
REMARK 921   NORMALIZED FREE ENERGY PREDICTED BY IDOCK:   -5.06 KCAL/MOL
REMARK 922        TOTAL FREE ENERGY PREDICTED BY IDOCK:   -8.64 KCAL/MOL
REMARK 923 INTER-LIGAND FREE ENERGY PREDICTED BY IDOCK:   -7.38 KCAL/MOL
REMARK 924 INTRA-LIGAND FREE ENERGY PREDICTED BY IDOCK:   -1.27 KCAL/MOL
REMARK 927      BINDING AFFINITY PREDICTED BY RF-SCORE:    0.00 PKD
ROOT
HETATM    1  C   UNL     1     -10.851   5.823  69.951  1.00  0.00    -0.347 C  
HETATM    2  O   UNL     1     -10.810   7.094  70.603  1.00  0.00    -0.233 OA 
ENDROOT
BRANCH   2   3
HETATM    3  C   UNL     1     -10.791   8.163  69.746  1.00  0.00    -0.190 A  
HETATM    4  C   UNL     1     -11.354   9.350  70.215  1.00  0.00    -0.220 A  
HETATM    5  O   UNL     1     -11.892   9.410  71.471  1.00  0.00    -0.333 OA 
HETATM    6  C   UNL     1     -11.418  10.488  69.416  1.00  0.00    -0.329 A  
HETATM    7  C   UNL     1     -10.912  10.434  68.116  1.00  0.00    -0.334 A  
HETATM    8  H   UNL     1     -12.274  10.218  71.791  1.00  0.00     0.000 HD 
HETATM    9  C   UNL     1     -10.322   9.262  67.629  1.00  0.00    -0.311 A  
HETATM   10  C   UNL     1     -10.243   8.133  68.463  1.00  0.00    -0.233 A  
BRANCH   9  11
HETATM   11  C   UNL     1      -9.846   9.152  66.205  1.00  0.00    -0.293 C  
BRANCH  11  12
HETATM   12  N   UNL     1     -10.267  10.269  65.412  1.00  0.00    -0.281 N  
HETATM   13  C   UNL     1      -9.749  10.502  64.160  1.00  0.00    -0.327 C  
HETATM   14  H   UNL     1     -10.969  10.907  65.786  1.00  0.00     0.000 HD 
HETATM   15  O   UNL     1      -8.921   9.794  63.618  1.00  0.00    -0.225 OA 
BRANCH  13  16
HETATM   16  C   UNL     1     -10.260  11.786  63.564  1.00  0.00    -0.483 C  
BRANCH  16  17
HETATM   17  C   UNL     1     -11.740  12.028  63.825  1.00  0.00    -0.575 C  
BRANCH  17  18
HETATM   18  C   UNL     1     -12.106  13.516  63.932  1.00  0.00    -0.493 C  
BRANCH  18  19
HETATM   19  C   UNL     1     -12.851  13.932  65.207  1.00  0.00    -0.437 C  
BRANCH  19  20
HETATM   20  C   UNL     1     -12.137  13.590  66.488  1.00  0.00    -0.460 C  
HETATM   21  C   UNL     1     -11.221  14.349  67.115  1.00  0.00    -0.337 C  
HETATM   22  C   UNL     1     -10.831  15.761  66.752  1.00  0.00    -0.254 C  
HETATM   23  C   UNL     1      -9.632  15.792  65.807  1.00  0.00    -0.355 C  
HETATM   24  C   UNL     1     -10.540  16.563  68.019  1.00  0.00    -0.328 C  
ENDBRANCH  19  20
ENDBRANCH  18  19
ENDBRANCH  17  18
ENDBRANCH  16  17
ENDBRANCH  13  16
ENDBRANCH  11  12
ENDBRANCH   9  11
ENDBRANCH   2   3
TORSDOF 8
ENDMDL
MODEL      100
REMARK 921   NORMALIZED FREE ENERGY PREDICTED BY IDOCK:   -5.06 KCAL/MOL
REMARK 922        TOTAL FREE ENERGY PREDICTED BY IDOCK:   -8.64 KCAL/MOL
REMARK 923 INTER-LIGAND FREE ENERGY PREDICTED BY IDOCK:   -7.16 KCAL/MOL
REMARK 924 INTRA-LIGAND FREE ENERGY PREDICTED BY IDOCK:   -1.49 KCAL/MOL
REMARK 927      BINDING AFFINITY PREDICTED BY RF-SCORE:    0.00 PKD
ROOT
HETATM    1  C   UNL     1     -14.291   8.388  71.935  1.00  0.00    -0.473 C  
HETATM    2  O   UNL     1     -13.310   9.308  72.419  1.00  0.00    -0.445 OA 
ENDROOT
BRANCH   2   3
HETATM    3  C   UNL     1     -12.348   9.635  71.501  1.00  0.00    -0.390 A  
HETATM    4  C   UNL     1     -11.095   9.045  71.672  1.00  0.00    -0.363 A  
HETATM    5  O   UNL     1     -10.871   8.189  72.714  1.00  0.00    -0.353 OA 
HETATM    6  C   UNL     1     -10.035   9.333  70.816  1.00  0.00    -0.357 A  
HETATM    7  C   UNL     1     -10.232  10.237  69.771  1.00  0.00    -0.262 A  
HETATM    8  H   UNL     1     -10.019   7.787  72.830  1.00  0.00     0.000 HD 
HETATM    9  C   UNL     1     -11.485  10.826  69.565  1.00  0.00    -0.365 A  
HETATM   10  C   UNL     1     -12.548  10.499  70.424  1.00  0.00    -0.364 A  
BRANCH   9  11
HETATM   11  C   UNL     1     -11.701  11.866  68.498  1.00  0.00    -0.330 C  
BRANCH  11  12
HETATM   12  N   UNL     1     -10.951  11.579  67.311  1.00  0.00    -0.255 N  
HETATM   13  C   UNL     1     -11.431  11.892  66.061  1.00  0.00    -0.281 C  
HETATM   14  H   UNL     1     -10.039  11.132  67.396  1.00  0.00     0.000 HD 
HETATM   15  O   UNL     1     -12.498  12.439  65.853  1.00  0.00    -0.583 OA 
BRANCH  13  16
HETATM   16  C   UNL     1     -10.523  11.402  64.965  1.00  0.00    -0.361 C  
BRANCH  16  17
HETATM   17  C   UNL     1      -9.248  10.751  65.482  1.00  0.00    -0.230 C  
BRANCH  17  18
HETATM   18  C   UNL     1      -9.255   9.219  65.372  1.00  0.00    -0.284 C  
BRANCH  18  19
HETATM   19  C   UNL     1      -9.836   8.465  66.575  1.00  0.00    -0.338 C  
BRANCH  19  20
HETATM   20  C   UNL     1      -8.806   7.870  67.498  1.00  0.00    -0.128 C  
HETATM   21  C   UNL     1      -8.961   6.775  68.263  1.00  0.00    -0.123 C  
HETATM   22  C   UNL     1     -10.137   5.831  68.243  1.00  0.00    -0.208 C  
HETATM   23  C   UNL     1     -11.193   6.219  69.276  1.00  0.00    -0.458 C  
HETATM   24  C   UNL     1      -9.659   4.398  68.472  1.00  0.00    -0.208 C  
ENDBRANCH  19  20
ENDBRANCH  18  19
ENDBRANCH  17  18
ENDBRANCH  16  17
ENDBRANCH  13  16
ENDBRANCH  11  12
ENDBRANCH   9  11
ENDBRANCH   2   3
TORSDOF 8
ENDMDL
MODEL      101
REMARK 921   NORMALIZED FREE ENERGY PREDICTED BY IDOCK:   -5.06 KCAL/MOL
REMARK 922        TOTAL FREE ENERGY PREDICTED BY IDOCK:   -8.64 KCAL/MOL
REMARK 923 INTER-LIGAND FREE ENERGY PREDICTED BY IDOCK:   -6.73 KCAL/MOL
REMARK 924 INTRA-LIGAND FREE ENERGY PREDICTED BY IDOCK:   -1.91 KCAL/MOL
REMARK 927      BINDING AFFINITY PREDICTED BY RF-SCORE:    0.00 PKD
ROOT
HETATM    1  C   UNL     1     -11.189  16.451  64.738  1.00  0.00    -0.212 C  
HETATM    2  O   UNL     1     -10.084  17.093  65.376  1.00  0.00    -0.571 OA 
ENDROOT
BRANCH   2   3
HETATM    3  C   UNL     1      -9.628  16.444  66.493  1.00  0.00    -0.270 A  
HETATM    4  C   UNL     1      -9.884  17.056  67.720  1.00  0.00    -0.271 A  
HETATM    5  O   UNL     1     -10.557  18.246  67.771  1.00  0.00    -0.408 OA 
HETATM    6  C   UNL     1      -9.435  16.501  68.915  1.00  0.00    -0.260 A  
HETATM    7  C   UNL     1      -8.710  15.309  68.880  1.00  0.00    -0.208 A  
HETATM    8  H   UNL     1     -10.731  18.663  68.606  1.00  0.00     0.000 HD 
HETATM    9  C   UNL     1      -8.459  14.663  67.664  1.00  0.00    -0.187 A  
HETATM   10  C   UNL     1      -8.945  15.228  66.472  1.00  0.00    -0.340 A  
BRANCH   9  11
HETATM   11  C   UNL     1      -7.609  13.423  67.592  1.00  0.00    -0.174 C  
BRANCH  11  12
HETATM   12  N   UNL     1      -8.051  12.529  66.563  1.00  0.00    -0.389 N  
HETATM   13  C   UNL     1      -7.682  11.205  66.548  1.00  0.00    -0.146 C  
HETATM   14  H   UNL     1      -8.656  12.884  65.822  1.00  0.00     0.000 HD 
HETATM   15  O   UNL     1      -6.978  10.680  67.391  1.00  0.00    -0.078 OA 
BRANCH  13  16
HETATM   16  C   UNL     1      -8.176  10.490  65.319  1.00  0.00    -0.146 C  
BRANCH  16  17
HETATM   17  C   UNL     1      -9.676  10.227  65.335  1.00  0.00    -0.340 C  
BRANCH  17  18
HETATM   18  C   UNL     1     -10.406  10.779  64.102  1.00  0.00    -0.382 C  
BRANCH  18  19
HETATM   19  C   UNL     1     -10.569  12.304  64.048  1.00  0.00    -0.434 C  
BRANCH  19  20
HETATM   20  C   UNL     1     -11.950  12.798  64.392  1.00  0.00    -0.464 C  
HETATM   21  C   UNL     1     -12.432  13.012  65.629  1.00  0.00    -0.452 C  
HETATM   22  C   UNL     1     -11.648  12.950  66.916  1.00  0.00    -0.425 C  
HETATM   23  C   UNL     1     -11.720  11.566  67.556  1.00  0.00    -0.262 C  
HETATM   24  C   UNL     1     -12.152  14.019  67.885  1.00  0.00    -0.314 C  
ENDBRANCH  19  20
ENDBRANCH  18  19
ENDBRANCH  17  18
ENDBRANCH  16  17
ENDBRANCH  13  16
ENDBRANCH  11  12
ENDBRANCH   9  11
ENDBRANCH   2   3
TORSDOF 8
ENDMDL
MODEL      102
REMARK 921   NORMALIZED FREE ENERGY PREDICTED BY IDOCK:   -5.04 KCAL/MOL
REMARK 922        TOTAL FREE ENERGY PREDICTED BY IDOCK:   -8.62 KCAL/MOL
REMARK 923 INTER-LIGAND FREE ENERGY PREDICTED BY IDOCK:   -6.60 KCAL/MOL
REMARK 924 INTRA-LIGAND FREE ENERGY PREDICTED BY IDOCK:   -2.02 KCAL/MOL
REMARK 927      BINDING AFFINITY PREDICTED BY RF-SCORE:    0.00 PKD
ROOT
HETATM    1  C   UNL     1     -13.135  11.587  71.617  1.00  0.00    -0.373 C  
HETATM    2  O   UNL     1     -12.994  10.345  70.926  1.00  0.00    -0.379 OA 
ENDROOT
BRANCH   2   3
HETATM    3  C   UNL     1     -11.919   9.598  71.332  1.00  0.00    -0.399 A  
HETATM    4  C   UNL     1     -12.137   8.711  72.386  1.00  0.00    -0.345 A  
HETATM    5  O   UNL     1     -13.372   8.617  72.965  1.00  0.00    -0.789 OA 
HETATM    6  C   UNL     1     -11.107   7.927  72.900  1.00  0.00    -0.442 A  
HETATM    7  C   UNL     1      -9.829   8.040  72.350  1.00  0.00    -0.313 A  
HETATM    8  H   UNL     1     -13.521   8.012  73.682  1.00  0.00     0.000 HD 
HETATM    9  C   UNL     1      -9.589   8.907  71.276  1.00  0.00    -0.348 A  
HETATM   10  C   UNL     1     -10.650   9.667  70.756  1.00  0.00    -0.392 A  
BRANCH   9  11
HETATM   11  C   UNL     1      -8.204   9.108  70.722  1.00  0.00    -0.190 C  
BRANCH  11  12
HETATM   12  N   UNL     1      -7.942   8.244  69.609  1.00  0.00    -0.108 N  
HETATM   13  C   UNL     1      -7.959   8.707  68.315  1.00  0.00    -0.110 C  
HETATM   14  H   UNL     1      -7.737   7.259  69.782  1.00  0.00     0.000 HD 
HETATM   15  O   UNL     1      -8.177   9.863  68.003  1.00  0.00    -0.111 OA 
BRANCH  13  16
HETATM   16  C   UNL     1      -7.762   7.601  67.313  1.00  0.00    -0.113 C  
BRANCH  16  17
HETATM   17  C   UNL     1      -9.009   7.300  66.493  1.00  0.00    -0.175 C  
BRANCH  17  18
HETATM   18  C   UNL     1     -10.318   7.553  67.256  1.00  0.00    -0.366 C  
BRANCH  18  19
HETATM   19  C   UNL     1     -11.094   6.301  67.686  1.00  0.00    -0.368 C  
BRANCH  19  20
HETATM   20  C   UNL     1     -11.262   6.151  69.175  1.00  0.00    -0.409 C  
HETATM   21  C   UNL     1     -10.458   5.458  70.000  1.00  0.00    -0.373 C  
HETATM   22  C   UNL     1      -9.142   4.817  69.635  1.00  0.00    -0.163 C  
HETATM   23  C   UNL     1      -9.320   3.357  69.223  1.00  0.00    -0.240 C  
HETATM   24  C   UNL     1      -8.164   4.933  70.802  1.00  0.00    -0.094 C  
ENDBRANCH  19  20
ENDBRANCH  18  19
ENDBRANCH  17  18
ENDBRANCH  16  17
ENDBRANCH  13  16
ENDBRANCH  11  12
ENDBRANCH   9  11
ENDBRANCH   2   3
TORSDOF 8
ENDMDL
MODEL      103
REMARK 921   NORMALIZED FREE ENERGY PREDICTED BY IDOCK:   -5.04 KCAL/MOL
REMARK 922        TOTAL FREE ENERGY PREDICTED BY IDOCK:   -8.61 KCAL/MOL
REMARK 923 INTER-LIGAND FREE ENERGY PREDICTED BY IDOCK:   -7.70 KCAL/MOL
REMARK 924 INTRA-LIGAND FREE ENERGY PREDICTED BY IDOCK:   -0.91 KCAL/MOL
REMARK 927      BINDING AFFINITY PREDICTED BY RF-SCORE:    0.00 PKD
ROOT
HETATM    1  C   UNL     1      -9.167   9.196  69.761  1.00  0.00    -0.171 C  
HETATM    2  O   UNL     1     -10.064   8.183  70.222  1.00  0.00    -0.189 OA 
ENDROOT
BRANCH   2   3
HETATM    3  C   UNL     1     -11.207   8.669  70.799  1.00  0.00    -0.261 A  
HETATM    4  C   UNL     1     -12.143   7.726  71.223  1.00  0.00    -0.306 A  
HETATM    5  O   UNL     1     -11.903   6.390  71.053  1.00  0.00    -0.343 OA 
HETATM    6  C   UNL     1     -13.355   8.110  71.792  1.00  0.00    -0.370 A  
HETATM    7  C   UNL     1     -13.637   9.469  71.935  1.00  0.00    -0.468 A  
HETATM    8  H   UNL     1     -12.540   5.748  71.342  1.00  0.00     0.000 HD 
HETATM    9  C   UNL     1     -12.705  10.436  71.538  1.00  0.00    -0.564 A  
HETATM   10  C   UNL     1     -11.477  10.024  70.992  1.00  0.00    -0.463 A  
BRANCH   9  11
HETATM   11  C   UNL     1     -13.019  11.907  71.604  1.00  0.00    -0.342 C  
BRANCH  11  12
HETATM   12  N   UNL     1     -12.155  12.677  70.760  1.00  0.00    -0.484 N  
HETATM   13  C   UNL     1     -12.398  14.005  70.497  1.00  0.00    -0.367 C  
HETATM   14  H   UNL     1     -11.339  12.230  70.344  1.00  0.00     0.000 HD 
HETATM   15  O   UNL     1     -13.334  14.635  70.956  1.00  0.00    -0.374 OA 
BRANCH  13  16
HETATM   16  C   UNL     1     -11.422  14.576  69.505  1.00  0.00    -0.330 C  
BRANCH  16  17
HETATM   17  C   UNL     1     -10.692  13.513  68.695  1.00  0.00    -0.271 C  
BRANCH  17  18
HETATM   18  C   UNL     1     -10.812  13.712  67.177  1.00  0.00    -0.292 C  
BRANCH  18  19
HETATM   19  C   UNL     1     -11.008  15.159  66.705  1.00  0.00    -0.318 C  
BRANCH  19  20
HETATM   20  C   UNL     1      -9.767  15.810  66.154  1.00  0.00    -0.351 C  
HETATM   21  C   UNL     1      -9.265  17.002  66.522  1.00  0.00    -0.296 C  
HETATM   22  C   UNL     1      -9.748  17.861  67.664  1.00  0.00    -0.280 C  
HETATM   23  C   UNL     1     -10.784  18.884  67.203  1.00  0.00    -0.506 C  
HETATM   24  C   UNL     1      -8.563  18.556  68.331  1.00  0.00    -0.355 C  
ENDBRANCH  19  20
ENDBRANCH  18  19
ENDBRANCH  17  18
ENDBRANCH  16  17
ENDBRANCH  13  16
ENDBRANCH  11  12
ENDBRANCH   9  11
ENDBRANCH   2   3
TORSDOF 8
ENDMDL
MODEL      104
REMARK 921   NORMALIZED FREE ENERGY PREDICTED BY IDOCK:   -5.02 KCAL/MOL
REMARK 922        TOTAL FREE ENERGY PREDICTED BY IDOCK:   -8.59 KCAL/MOL
REMARK 923 INTER-LIGAND FREE ENERGY PREDICTED BY IDOCK:   -7.70 KCAL/MOL
REMARK 924 INTRA-LIGAND FREE ENERGY PREDICTED BY IDOCK:   -0.89 KCAL/MOL
REMARK 927      BINDING AFFINITY PREDICTED BY RF-SCORE:    0.00 PKD
ROOT
HETATM    1  C   UNL     1     -10.639  16.110  69.767  1.00  0.00    -0.312 C  
HETATM    2  O   UNL     1     -11.832  16.118  70.554  1.00  0.00    -0.330 OA 
ENDROOT
BRANCH   2   3
HETATM    3  C   UNL     1     -12.292  14.871  70.886  1.00  0.00    -0.328 A  
HETATM    4  C   UNL     1     -13.071  14.779  72.040  1.00  0.00    -0.337 A  
HETATM    5  O   UNL     1     -13.342  15.896  72.781  1.00  0.00    -0.496 OA 
HETATM    6  C   UNL     1     -13.562  13.555  72.488  1.00  0.00    -0.674 A  
HETATM    7  C   UNL     1     -13.261  12.398  71.768  1.00  0.00    -0.435 A  
HETATM    8  H   UNL     1     -13.872  15.833  73.566  1.00  0.00     0.000 HD 
HETATM    9  C   UNL     1     -12.500  12.466  70.595  1.00  0.00    -0.320 A  
HETATM   10  C   UNL     1     -12.038  13.716  70.146  1.00  0.00    -0.431 A  
BRANCH   9  11
HETATM   11  C   UNL     1     -12.091  11.225  69.847  1.00  0.00    -0.341 C  
BRANCH  11  12
HETATM   12  N   UNL     1     -11.153  10.437  70.591  1.00  0.00    -0.406 N  
HETATM   13  C   UNL     1     -11.543   9.317  71.288  1.00  0.00    -0.349 C  
HETATM   14  H   UNL     1     -10.171  10.713  70.603  1.00  0.00     0.000 HD 
HETATM   15  O   UNL     1     -12.684   8.896  71.325  1.00  0.00    -0.313 OA 
BRANCH  13  16
HETATM   16  C   UNL     1     -10.410   8.716  72.076  1.00  0.00    -0.416 C  
BRANCH  16  17
HETATM   17  C   UNL     1      -9.576   7.726  71.276  1.00  0.00    -0.178 C  
BRANCH  17  18
HETATM   18  C   UNL     1      -9.847   6.260  71.645  1.00  0.00    -0.184 C  
BRANCH  18  19
HETATM   19  C   UNL     1     -10.478   5.398  70.543  1.00  0.00    -0.335 C  
BRANCH  19  20
HETATM   20  C   UNL     1     -11.229   6.176  69.494  1.00  0.00    -0.482 C  
HETATM   21  C   UNL     1     -10.963   6.195  68.176  1.00  0.00    -0.398 C  
HETATM   22  C   UNL     1      -9.960   5.328  67.455  1.00  0.00    -0.206 C  
HETATM   23  C   UNL     1      -8.601   6.013  67.337  1.00  0.00    -0.102 C  
HETATM   24  C   UNL     1     -10.495   4.951  66.075  1.00  0.00    -0.327 C  
ENDBRANCH  19  20
ENDBRANCH  18  19
ENDBRANCH  17  18
ENDBRANCH  16  17
ENDBRANCH  13  16
ENDBRANCH  11  12
ENDBRANCH   9  11
ENDBRANCH   2   3
TORSDOF 8
ENDMDL
MODEL      105
REMARK 921   NORMALIZED FREE ENERGY PREDICTED BY IDOCK:   -5.01 KCAL/MOL
REMARK 922        TOTAL FREE ENERGY PREDICTED BY IDOCK:   -8.57 KCAL/MOL
REMARK 923 INTER-LIGAND FREE ENERGY PREDICTED BY IDOCK:   -7.45 KCAL/MOL
REMARK 924 INTRA-LIGAND FREE ENERGY PREDICTED BY IDOCK:   -1.12 KCAL/MOL
REMARK 927      BINDING AFFINITY PREDICTED BY RF-SCORE:    0.00 PKD
ROOT
HETATM    1  C   UNL     1     -11.876  14.302  67.781  1.00  0.00    -0.379 C  
HETATM    2  O   UNL     1     -11.736  14.770  69.123  1.00  0.00    -0.283 OA 
ENDROOT
BRANCH   2   3
HETATM    3  C   UNL     1     -12.279  13.937  70.066  1.00  0.00    -0.344 A  
HETATM    4  C   UNL     1     -13.028  14.541  71.077  1.00  0.00    -0.358 A  
HETATM    5  O   UNL     1     -13.191  15.898  71.098  1.00  0.00    -0.580 OA 
HETATM    6  C   UNL     1     -13.596  13.792  72.104  1.00  0.00    -0.613 A  
HETATM    7  C   UNL     1     -13.405  12.410  72.123  1.00  0.00    -0.508 A  
HETATM    8  H   UNL     1     -13.701  16.309  71.786  1.00  0.00     0.000 HD 
HETATM    9  C   UNL     1     -12.677  11.777  71.108  1.00  0.00    -0.405 A  
HETATM   10  C   UNL     1     -12.136  12.550  70.066  1.00  0.00    -0.337 A  
BRANCH   9  11
HETATM   11  C   UNL     1     -12.387  10.300  71.150  1.00  0.00    -0.395 C  
BRANCH  11  12
HETATM   12  N   UNL     1     -11.519   9.895  70.084  1.00  0.00    -0.302 N  
HETATM   13  C   UNL     1     -10.220   9.508  70.318  1.00  0.00    -0.260 C  
HETATM   14  H   UNL     1     -11.873   9.893  69.128  1.00  0.00     0.000 HD 
HETATM   15  O   UNL     1      -9.707   9.460  71.421  1.00  0.00    -0.236 OA 
BRANCH  13  16
HETATM   16  C   UNL     1      -9.471   9.230  69.043  1.00  0.00    -0.155 C  
BRANCH  16  17
HETATM   17  C   UNL     1      -8.927   7.810  68.958  1.00  0.00    -0.145 C  
BRANCH  17  18
HETATM   18  C   UNL     1      -9.887   6.828  68.272  1.00  0.00    -0.144 C  
BRANCH  18  19
HETATM   19  C   UNL     1     -10.547   5.788  69.187  1.00  0.00    -0.365 C  
BRANCH  19  20
HETATM   20  C   UNL     1     -11.626   6.338  70.082  1.00  0.00    -0.385 C  
HETATM   21  C   UNL     1     -11.611   6.356  71.427  1.00  0.00    -0.368 C  
HETATM   22  C   UNL     1     -10.451   5.972  72.313  1.00  0.00    -0.241 C  
HETATM   23  C   UNL     1     -10.517   4.503  72.727  1.00  0.00    -0.261 C  
HETATM   24  C   UNL     1     -10.411   6.877  73.541  1.00  0.00    -0.382 C  
ENDBRANCH  19  20
ENDBRANCH  18  19
ENDBRANCH  17  18
ENDBRANCH  16  17
ENDBRANCH  13  16
ENDBRANCH  11  12
ENDBRANCH   9  11
ENDBRANCH   2   3
TORSDOF 8
ENDMDL
MODEL      106
REMARK 921   NORMALIZED FREE ENERGY PREDICTED BY IDOCK:   -5.01 KCAL/MOL
REMARK 922        TOTAL FREE ENERGY PREDICTED BY IDOCK:   -8.57 KCAL/MOL
REMARK 923 INTER-LIGAND FREE ENERGY PREDICTED BY IDOCK:   -7.68 KCAL/MOL
REMARK 924 INTRA-LIGAND FREE ENERGY PREDICTED BY IDOCK:   -0.89 KCAL/MOL
REMARK 927      BINDING AFFINITY PREDICTED BY RF-SCORE:    0.00 PKD
ROOT
HETATM    1  C   UNL     1     -11.234  10.858  67.598  1.00  0.00    -0.309 C  
HETATM    2  O   UNL     1     -10.579  10.604  68.842  1.00  0.00    -0.186 OA 
ENDROOT
BRANCH   2   3
HETATM    3  C   UNL     1     -11.430  10.484  69.909  1.00  0.00    -0.310 A  
HETATM    4  C   UNL     1     -11.654   9.193  70.387  1.00  0.00    -0.146 A  
HETATM    5  O   UNL     1     -11.042   8.121  69.797  1.00  0.00    -0.404 OA 
HETATM    6  C   UNL     1     -12.527   8.952  71.445  1.00  0.00    -0.357 A  
HETATM    7  C   UNL     1     -13.194  10.028  72.033  1.00  0.00    -0.545 A  
HETATM    8  H   UNL     1     -11.195   7.243  70.123  1.00  0.00     0.000 HD 
HETATM    9  C   UNL     1     -12.969  11.336  71.587  1.00  0.00    -0.537 A  
HETATM   10  C   UNL     1     -12.063  11.557  70.535  1.00  0.00    -0.472 A  
BRANCH   9  11
HETATM   11  C   UNL     1     -13.738  12.503  72.147  1.00  0.00    -0.243 C  
BRANCH  11  12
HETATM   12  N   UNL     1     -13.161  13.757  71.765  1.00  0.00    -0.364 N  
HETATM   13  C   UNL     1     -12.703  14.656  72.700  1.00  0.00    -0.375 C  
HETATM   14  H   UNL     1     -13.088  13.990  70.774  1.00  0.00     0.000 HD 
HETATM   15  O   UNL     1     -12.730  14.468  73.902  1.00  0.00    -0.455 OA 
BRANCH  13  16
HETATM   16  C   UNL     1     -12.240  15.943  72.071  1.00  0.00    -0.570 C  
BRANCH  16  17
HETATM   17  C   UNL     1     -12.252  15.912  70.549  1.00  0.00    -0.314 C  
BRANCH  17  18
HETATM   18  C   UNL     1     -10.917  15.466  69.936  1.00  0.00    -0.305 C  
BRANCH  18  19
HETATM   19  C   UNL     1     -10.088  16.568  69.263  1.00  0.00    -0.270 C  
BRANCH  19  20
HETATM   20  C   UNL     1     -10.656  17.070  67.961  1.00  0.00    -0.373 C  
HETATM   21  C   UNL     1     -10.898  16.332  66.863  1.00  0.00    -0.151 C  
HETATM   22  C   UNL     1     -10.796  14.831  66.755  1.00  0.00    -0.316 C  
HETATM   23  C   UNL     1      -9.419  14.390  66.265  1.00  0.00    -0.297 C  
HETATM   24  C   UNL     1     -11.892  14.300  65.833  1.00  0.00    -0.386 C  
ENDBRANCH  19  20
ENDBRANCH  18  19
ENDBRANCH  17  18
ENDBRANCH  16  17
ENDBRANCH  13  16
ENDBRANCH  11  12
ENDBRANCH   9  11
ENDBRANCH   2   3
TORSDOF 8
ENDMDL
MODEL      107
REMARK 921   NORMALIZED FREE ENERGY PREDICTED BY IDOCK:   -5.01 KCAL/MOL
REMARK 922        TOTAL FREE ENERGY PREDICTED BY IDOCK:   -8.57 KCAL/MOL
REMARK 923 INTER-LIGAND FREE ENERGY PREDICTED BY IDOCK:   -8.04 KCAL/MOL
REMARK 924 INTRA-LIGAND FREE ENERGY PREDICTED BY IDOCK:   -0.52 KCAL/MOL
REMARK 927      BINDING AFFINITY PREDICTED BY RF-SCORE:    0.00 PKD
ROOT
HETATM    1  C   UNL     1     -14.300   8.441  71.763  1.00  0.00    -0.472 C  
HETATM    2  O   UNL     1     -13.283   9.034  72.572  1.00  0.00    -0.445 OA 
ENDROOT
BRANCH   2   3
HETATM    3  C   UNL     1     -12.038   9.029  71.999  1.00  0.00    -0.370 A  
HETATM    4  C   UNL     1     -11.087   8.188  72.578  1.00  0.00    -0.377 A  
HETATM    5  O   UNL     1     -11.412   7.422  73.663  1.00  0.00    -0.514 OA 
HETATM    6  C   UNL     1      -9.782   8.130  72.097  1.00  0.00    -0.311 A  
HETATM    7  C   UNL     1      -9.419   8.935  71.017  1.00  0.00    -0.318 A  
HETATM    8  H   UNL     1     -10.765   6.849  74.056  1.00  0.00     0.000 HD 
HETATM    9  C   UNL     1     -10.360   9.772  70.404  1.00  0.00    -0.354 A  
HETATM   10  C   UNL     1     -11.679   9.794  70.889  1.00  0.00    -0.429 A  
BRANCH   9  11
HETATM   11  C   UNL     1      -9.974  10.712  69.293  1.00  0.00    -0.193 C  
BRANCH  11  12
HETATM   12  N   UNL     1     -10.588  11.998  69.442  1.00  0.00    -0.439 N  
HETATM   13  C   UNL     1     -11.557  12.441  68.572  1.00  0.00    -0.313 C  
HETATM   14  H   UNL     1     -10.300  12.600  70.213  1.00  0.00     0.000 HD 
HETATM   15  O   UNL     1     -11.981  11.795  67.632  1.00  0.00    -0.599 OA 
BRANCH  13  16
HETATM   16  C   UNL     1     -11.976  13.857  68.862  1.00  0.00    -0.393 C  
BRANCH  16  17
HETATM   17  C   UNL     1     -11.444  14.864  67.851  1.00  0.00    -0.357 C  
BRANCH  17  18
HETATM   18  C   UNL     1     -11.530  16.319  68.336  1.00  0.00    -0.243 C  
BRANCH  18  19
HETATM   19  C   UNL     1     -10.496  17.284  67.740  1.00  0.00    -0.371 C  
BRANCH  19  20
HETATM   20  C   UNL     1      -9.063  16.884  67.967  1.00  0.00    -0.234 C  
HETATM   21  C   UNL     1      -8.016  17.718  68.098  1.00  0.00    -0.263 C  
HETATM   22  C   UNL     1      -8.079  19.222  68.198  1.00  0.00    -0.349 C  
HETATM   23  C   UNL     1      -7.931  19.886  66.830  1.00  0.00    -0.339 C  
HETATM   24  C   UNL     1      -7.006  19.725  69.161  1.00  0.00    -0.364 C  
ENDBRANCH  19  20
ENDBRANCH  18  19
ENDBRANCH  17  18
ENDBRANCH  16  17
ENDBRANCH  13  16
ENDBRANCH  11  12
ENDBRANCH   9  11
ENDBRANCH   2   3
TORSDOF 8
ENDMDL
MODEL      108
REMARK 921   NORMALIZED FREE ENERGY PREDICTED BY IDOCK:   -5.00 KCAL/MOL
REMARK 922        TOTAL FREE ENERGY PREDICTED BY IDOCK:   -8.56 KCAL/MOL
REMARK 923 INTER-LIGAND FREE ENERGY PREDICTED BY IDOCK:   -7.60 KCAL/MOL
REMARK 924 INTRA-LIGAND FREE ENERGY PREDICTED BY IDOCK:   -0.96 KCAL/MOL
REMARK 927      BINDING AFFINITY PREDICTED BY RF-SCORE:    0.00 PKD
ROOT
HETATM    1  C   UNL     1     -10.487  19.706  65.889  1.00  0.00    -0.493 C  
HETATM    2  O   UNL     1      -9.561  18.798  66.490  1.00  0.00    -0.324 OA 
ENDROOT
BRANCH   2   3
HETATM    3  C   UNL     1     -10.110  17.596  66.850  1.00  0.00    -0.331 A  
HETATM    4  C   UNL     1     -10.520  17.468  68.177  1.00  0.00    -0.386 A  
HETATM    5  O   UNL     1     -10.366  18.509  69.051  1.00  0.00    -0.478 OA 
HETATM    6  C   UNL     1     -11.060  16.278  68.659  1.00  0.00    -0.356 A  
HETATM    7  C   UNL     1     -11.186  15.191  67.793  1.00  0.00    -0.327 A  
HETATM    8  H   UNL     1     -10.646  18.422  69.954  1.00  0.00     0.000 HD 
HETATM    9  C   UNL     1     -10.802  15.300  66.451  1.00  0.00    -0.317 A  
HETATM   10  C   UNL     1     -10.286  16.519  65.981  1.00  0.00    -0.372 A  
BRANCH   9  11
HETATM   11  C   UNL     1     -10.850  14.118  65.520  1.00  0.00    -0.310 C  
BRANCH  11  12
HETATM   12  N   UNL     1     -10.096  13.008  66.024  1.00  0.00    -0.280 N  
HETATM   13  C   UNL     1     -10.712  11.888  66.530  1.00  0.00    -0.258 C  
HETATM   14  H   UNL     1      -9.077  13.051  66.007  1.00  0.00     0.000 HD 
HETATM   15  O   UNL     1     -11.918  11.732  66.582  1.00  0.00    -0.561 OA 
BRANCH  13  16
HETATM   16  C   UNL     1      -9.724  10.904  67.097  1.00  0.00    -0.199 C  
BRANCH  16  17
HETATM   17  C   UNL     1     -10.228   9.467  67.086  1.00  0.00    -0.305 C  
BRANCH  17  18
HETATM   18  C   UNL     1      -9.574   8.583  68.158  1.00  0.00    -0.158 C  
BRANCH  18  19
HETATM   19  C   UNL     1     -10.538   7.853  69.103  1.00  0.00    -0.184 C  
BRANCH  19  20
HETATM   20  C   UNL     1     -10.306   8.125  70.566  1.00  0.00    -0.211 C  
HETATM   21  C   UNL     1     -10.986   8.999  71.330  1.00  0.00    -0.384 C  
HETATM   22  C   UNL     1     -12.215   9.773  70.923  1.00  0.00    -0.390 C  
HETATM   23  C   UNL     1     -11.858  11.148  70.361  1.00  0.00    -0.462 C  
HETATM   24  C   UNL     1     -13.164   9.907  72.112  1.00  0.00    -0.511 C  
ENDBRANCH  19  20
ENDBRANCH  18  19
ENDBRANCH  17  18
ENDBRANCH  16  17
ENDBRANCH  13  16
ENDBRANCH  11  12
ENDBRANCH   9  11
ENDBRANCH   2   3
TORSDOF 8
ENDMDL
MODEL      109
REMARK 921   NORMALIZED FREE ENERGY PREDICTED BY IDOCK:   -4.98 KCAL/MOL
REMARK 922        TOTAL FREE ENERGY PREDICTED BY IDOCK:   -8.53 KCAL/MOL
REMARK 923 INTER-LIGAND FREE ENERGY PREDICTED BY IDOCK:   -6.89 KCAL/MOL
REMARK 924 INTRA-LIGAND FREE ENERGY PREDICTED BY IDOCK:   -1.63 KCAL/MOL
REMARK 927      BINDING AFFINITY PREDICTED BY RF-SCORE:    0.00 PKD
ROOT
HETATM    1  C   UNL     1     -10.324  11.381  63.245  1.00  0.00    -0.367 C  
HETATM    2  O   UNL     1     -11.326  11.738  64.199  1.00  0.00    -0.351 OA 
ENDROOT
BRANCH   2   3
HETATM    3  C   UNL     1     -11.116  12.949  64.805  1.00  0.00    -0.309 A  
HETATM    4  C   UNL     1     -11.734  14.055  64.222  1.00  0.00    -0.367 A  
HETATM    5  O   UNL     1     -12.502  13.906  63.101  1.00  0.00    -1.121 OA 
HETATM    6  C   UNL     1     -11.560  15.338  64.736  1.00  0.00    -0.322 A  
HETATM    7  C   UNL     1     -10.746  15.516  65.855  1.00  0.00    -0.346 A  
HETATM    8  H   UNL     1     -12.923  14.659  62.704  1.00  0.00     0.000 HD 
HETATM    9  C   UNL     1     -10.132  14.419  66.472  1.00  0.00    -0.281 A  
HETATM   10  C   UNL     1     -10.343  13.131  65.952  1.00  0.00    -0.295 A  
BRANCH   9  11
HETATM   11  C   UNL     1      -9.182  14.595  67.627  1.00  0.00    -0.193 C  
BRANCH  11  12
HETATM   12  N   UNL     1      -8.700  13.339  68.120  1.00  0.00    -0.175 N  
HETATM   13  C   UNL     1      -7.382  12.969  67.989  1.00  0.00    -0.123 C  
HETATM   14  H   UNL     1      -9.351  12.702  68.580  1.00  0.00     0.000 HD 
HETATM   15  O   UNL     1      -6.525  13.661  67.471  1.00  0.00    -0.209 OA 
BRANCH  13  16
HETATM   16  C   UNL     1      -7.133  11.570  68.482  1.00  0.00    -0.087 C  
BRANCH  16  17
HETATM   17  C   UNL     1      -8.316  10.635  68.273  1.00  0.00    -0.122 C  
BRANCH  17  18
HETATM   18  C   UNL     1      -8.788   9.949  69.564  1.00  0.00    -0.208 C  
BRANCH  18  19
HETATM   19  C   UNL     1     -10.303   9.745  69.697  1.00  0.00    -0.259 C  
BRANCH  19  20
HETATM   20  C   UNL     1     -11.129  10.537  68.719  1.00  0.00    -0.315 C  
HETATM   21  C   UNL     1     -11.850  11.638  68.996  1.00  0.00    -0.391 C  
HETATM   22  C   UNL     1     -11.860  12.395  70.301  1.00  0.00    -0.315 C  
HETATM   23  C   UNL     1     -12.976  11.913  71.226  1.00  0.00    -0.334 C  
HETATM   24  C   UNL     1     -11.991  13.893  70.034  1.00  0.00    -0.404 C  
ENDBRANCH  19  20
ENDBRANCH  18  19
ENDBRANCH  17  18
ENDBRANCH  16  17
ENDBRANCH  13  16
ENDBRANCH  11  12
ENDBRANCH   9  11
ENDBRANCH   2   3
TORSDOF 8
ENDMDL
MODEL      110
REMARK 921   NORMALIZED FREE ENERGY PREDICTED BY IDOCK:   -4.98 KCAL/MOL
REMARK 922        TOTAL FREE ENERGY PREDICTED BY IDOCK:   -8.53 KCAL/MOL
REMARK 923 INTER-LIGAND FREE ENERGY PREDICTED BY IDOCK:   -7.17 KCAL/MOL
REMARK 924 INTRA-LIGAND FREE ENERGY PREDICTED BY IDOCK:   -1.36 KCAL/MOL
REMARK 927      BINDING AFFINITY PREDICTED BY RF-SCORE:    0.00 PKD
ROOT
HETATM    1  C   UNL     1      -5.479  17.458  69.224  1.00  0.00    -0.183 C  
HETATM    2  O   UNL     1      -6.493  16.687  69.870  1.00  0.00    -0.191 OA 
ENDROOT
BRANCH   2   3
HETATM    3  C   UNL     1      -7.254  15.934  69.015  1.00  0.00    -0.177 A  
HETATM    4  C   UNL     1      -7.295  14.561  69.257  1.00  0.00    -0.126 A  
HETATM    5  O   UNL     1      -6.597  14.024  70.303  1.00  0.00    -0.366 OA 
HETATM    6  C   UNL     1      -8.011  13.699  68.430  1.00  0.00    -0.147 A  
HETATM    7  C   UNL     1      -8.695  14.223  67.333  1.00  0.00    -0.217 A  
HETATM    8  H   UNL     1      -6.625  13.089  70.469  1.00  0.00     0.000 HD 
HETATM    9  C   UNL     1      -8.688  15.601  67.080  1.00  0.00    -0.256 A  
HETATM   10  C   UNL     1      -7.982  16.455  67.944  1.00  0.00    -0.161 A  
BRANCH   9  11
HETATM   11  C   UNL     1      -9.348  16.180  65.857  1.00  0.00    -0.281 C  
BRANCH  11  12
HETATM   12  N   UNL     1     -10.322  15.288  65.301  1.00  0.00    -0.392 N  
HETATM   13  C   UNL     1     -11.312  15.735  64.458  1.00  0.00    -0.316 C  
HETATM   14  H   UNL     1     -10.279  14.297  65.535  1.00  0.00     0.000 HD 
HETATM   15  O   UNL     1     -11.441  16.893  64.105  1.00  0.00    -1.174 OA 
BRANCH  13  16
HETATM   16  C   UNL     1     -12.278  14.643  64.086  1.00  0.00    -0.343 C  
BRANCH  16  17
HETATM   17  C   UNL     1     -11.607  13.296  63.854  1.00  0.00    -0.451 C  
BRANCH  17  18
HETATM   18  C   UNL     1     -12.158  12.176  64.750  1.00  0.00    -0.368 C  
BRANCH  18  19
HETATM   19  C   UNL     1     -12.087  12.433  66.261  1.00  0.00    -0.256 C  
BRANCH  19  20
HETATM   20  C   UNL     1     -11.108  11.559  66.999  1.00  0.00    -0.365 C  
HETATM   21  C   UNL     1     -11.094  11.323  68.323  1.00  0.00    -0.297 C  
HETATM   22  C   UNL     1     -12.140  11.759  69.319  1.00  0.00    -0.292 C  
HETATM   23  C   UNL     1     -11.790  13.103  69.955  1.00  0.00    -0.378 C  
HETATM   24  C   UNL     1     -12.317  10.685  70.391  1.00  0.00    -0.428 C  
ENDBRANCH  19  20
ENDBRANCH  18  19
ENDBRANCH  17  18
ENDBRANCH  16  17
ENDBRANCH  13  16
ENDBRANCH  11  12
ENDBRANCH   9  11
ENDBRANCH   2   3
TORSDOF 8
ENDMDL
MODEL      111
REMARK 921   NORMALIZED FREE ENERGY PREDICTED BY IDOCK:   -4.96 KCAL/MOL
REMARK 922        TOTAL FREE ENERGY PREDICTED BY IDOCK:   -8.49 KCAL/MOL
REMARK 923 INTER-LIGAND FREE ENERGY PREDICTED BY IDOCK:   -7.62 KCAL/MOL
REMARK 924 INTRA-LIGAND FREE ENERGY PREDICTED BY IDOCK:   -0.88 KCAL/MOL
REMARK 927      BINDING AFFINITY PREDICTED BY RF-SCORE:    0.00 PKD
ROOT
HETATM    1  C   UNL     1     -10.730   6.074  67.141  1.00  0.00    -0.330 C  
HETATM    2  O   UNL     1     -10.798   6.797  68.372  1.00  0.00    -0.232 OA 
ENDROOT
BRANCH   2   3
HETATM    3  C   UNL     1     -10.630   8.150  68.237  1.00  0.00    -0.098 A  
HETATM    4  C   UNL     1     -10.642   8.901  69.412  1.00  0.00    -0.217 A  
HETATM    5  O   UNL     1     -10.818   8.288  70.622  1.00  0.00    -0.227 OA 
HETATM    6  C   UNL     1     -10.514  10.288  69.388  1.00  0.00    -0.259 A  
HETATM    7  C   UNL     1     -10.376  10.936  68.160  1.00  0.00    -0.202 A  
HETATM    8  H   UNL     1     -10.826   8.800  71.422  1.00  0.00     0.000 HD 
HETATM    9  C   UNL     1     -10.338  10.202  66.968  1.00  0.00    -0.303 A  
HETATM   10  C   UNL     1     -10.442   8.802  67.018  1.00  0.00    -0.338 A  
BRANCH   9  11
HETATM   11  C   UNL     1     -10.274  10.883  65.626  1.00  0.00    -0.263 C  
BRANCH  11  12
HETATM   12  N   UNL     1     -10.227  12.309  65.751  1.00  0.00    -0.250 N  
HETATM   13  C   UNL     1     -11.372  13.071  65.768  1.00  0.00    -0.301 C  
HETATM   14  H   UNL     1      -9.321  12.772  65.830  1.00  0.00     0.000 HD 
HETATM   15  O   UNL     1     -12.499  12.617  65.696  1.00  0.00    -0.622 OA 
BRANCH  13  16
HETATM   16  C   UNL     1     -11.073  14.546  65.799  1.00  0.00    -0.324 C  
BRANCH  16  17
HETATM   17  C   UNL     1     -11.360  15.193  67.147  1.00  0.00    -0.291 C  
BRANCH  17  18
HETATM   18  C   UNL     1     -10.603  14.538  68.312  1.00  0.00    -0.241 C  
BRANCH  18  19
HETATM   19  C   UNL     1     -11.424  14.279  69.583  1.00  0.00    -0.334 C  
BRANCH  19  20
HETATM   20  C   UNL     1     -12.260  15.447  70.035  1.00  0.00    -0.392 C  
HETATM   21  C   UNL     1     -12.865  15.576  71.230  1.00  0.00    -0.540 C  
HETATM   22  C   UNL     1     -12.708  14.655  72.414  1.00  0.00    -0.429 C  
HETATM   23  C   UNL     1     -13.781  13.569  72.432  1.00  0.00    -0.704 C  
HETATM   24  C   UNL     1     -12.738  15.464  73.710  1.00  0.00    -0.723 C  
ENDBRANCH  19  20
ENDBRANCH  18  19
ENDBRANCH  17  18
ENDBRANCH  16  17
ENDBRANCH  13  16
ENDBRANCH  11  12
ENDBRANCH   9  11
ENDBRANCH   2   3
TORSDOF 8
ENDMDL
MODEL      112
REMARK 921   NORMALIZED FREE ENERGY PREDICTED BY IDOCK:   -4.96 KCAL/MOL
REMARK 922        TOTAL FREE ENERGY PREDICTED BY IDOCK:   -8.49 KCAL/MOL
REMARK 923 INTER-LIGAND FREE ENERGY PREDICTED BY IDOCK:   -7.52 KCAL/MOL
REMARK 924 INTRA-LIGAND FREE ENERGY PREDICTED BY IDOCK:   -0.97 KCAL/MOL
REMARK 927      BINDING AFFINITY PREDICTED BY RF-SCORE:    0.00 PKD
ROOT
HETATM    1  C   UNL     1      -6.248  15.010  67.909  1.00  0.00    -0.159 C  
HETATM    2  O   UNL     1      -6.400  16.128  67.033  1.00  0.00    -0.267 OA 
ENDROOT
BRANCH   2   3
HETATM    3  C   UNL     1      -7.696  16.545  66.878  1.00  0.00    -0.231 A  
HETATM    4  C   UNL     1      -8.099  17.633  67.652  1.00  0.00    -0.216 A  
HETATM    5  O   UNL     1      -7.221  18.230  68.515  1.00  0.00    -0.263 OA 
HETATM    6  C   UNL     1      -9.403  18.119  67.598  1.00  0.00    -0.260 A  
HETATM    7  C   UNL     1     -10.325  17.497  66.755  1.00  0.00    -0.314 A  
HETATM    8  H   UNL     1      -7.495  18.971  69.041  1.00  0.00     0.000 HD 
HETATM    9  C   UNL     1      -9.940  16.417  65.951  1.00  0.00    -0.358 A  
HETATM   10  C   UNL     1      -8.611  15.962  66.001  1.00  0.00    -0.130 A  
BRANCH   9  11
HETATM   11  C   UNL     1     -10.935  15.676  65.098  1.00  0.00    -0.398 C  
BRANCH  11  12
HETATM   12  N   UNL     1     -10.657  14.272  65.048  1.00  0.00    -0.401 N  
HETATM   13  C   UNL     1     -11.657  13.343  64.878  1.00  0.00    -0.330 C  
HETATM   14  H   UNL     1      -9.693  13.952  65.142  1.00  0.00     0.000 HD 
HETATM   15  O   UNL     1     -12.834  13.621  64.742  1.00  0.00    -0.680 OA 
BRANCH  13  16
HETATM   16  C   UNL     1     -11.143  11.932  64.965  1.00  0.00    -0.360 C  
BRANCH  16  17
HETATM   17  C   UNL     1     -10.564  11.582  66.329  1.00  0.00    -0.309 C  
BRANCH  17  18
HETATM   18  C   UNL     1     -11.601  11.620  67.461  1.00  0.00    -0.345 C  
BRANCH  18  19
HETATM   19  C   UNL     1     -11.378  12.690  68.538  1.00  0.00    -0.333 C  
BRANCH  19  20
HETATM   20  C   UNL     1     -12.023  12.386  69.865  1.00  0.00    -0.369 C  
HETATM   21  C   UNL     1     -12.411  13.286  70.785  1.00  0.00    -0.425 C  
HETATM   22  C   UNL     1     -12.422  14.786  70.618  1.00  0.00    -0.407 C  
HETATM   23  C   UNL     1     -11.126  15.420  71.119  1.00  0.00    -0.362 C  
HETATM   24  C   UNL     1     -13.628  15.381  71.341  1.00  0.00    -0.604 C  
ENDBRANCH  19  20
ENDBRANCH  18  19
ENDBRANCH  17  18
ENDBRANCH  16  17
ENDBRANCH  13  16
ENDBRANCH  11  12
ENDBRANCH   9  11
ENDBRANCH   2   3
TORSDOF 8
ENDMDL
MODEL      113
REMARK 921   NORMALIZED FREE ENERGY PREDICTED BY IDOCK:   -4.95 KCAL/MOL
REMARK 922        TOTAL FREE ENERGY PREDICTED BY IDOCK:   -8.47 KCAL/MOL
REMARK 923 INTER-LIGAND FREE ENERGY PREDICTED BY IDOCK:   -7.68 KCAL/MOL
REMARK 924 INTRA-LIGAND FREE ENERGY PREDICTED BY IDOCK:   -0.80 KCAL/MOL
REMARK 927      BINDING AFFINITY PREDICTED BY RF-SCORE:    0.00 PKD
ROOT
HETATM    1  C   UNL     1      -8.844  17.156  66.767  1.00  0.00    -0.246 C  
HETATM    2  O   UNL     1      -9.720  16.921  65.663  1.00  0.00    -0.538 OA 
ENDROOT
BRANCH   2   3
HETATM    3  C   UNL     1     -10.616  15.905  65.866  1.00  0.00    -0.337 A  
HETATM    4  C   UNL     1     -11.372  15.509  64.762  1.00  0.00    -0.357 A  
HETATM    5  O   UNL     1     -11.204  16.125  63.553  1.00  0.00    -0.688 OA 
HETATM    6  C   UNL     1     -12.336  14.509  64.865  1.00  0.00    -0.378 A  
HETATM    7  C   UNL     1     -12.551  13.897  66.100  1.00  0.00    -0.426 A  
HETATM    8  H   UNL     1     -11.718  15.854  62.802  1.00  0.00     0.000 HD 
HETATM    9  C   UNL     1     -11.791  14.261  67.218  1.00  0.00    -0.444 A  
HETATM   10  C   UNL     1     -10.804  15.254  67.085  1.00  0.00    -0.322 A  
BRANCH   9  11
HETATM   11  C   UNL     1     -12.061  13.678  68.579  1.00  0.00    -0.286 C  
BRANCH  11  12
HETATM   12  N   UNL     1     -11.543  12.347  68.704  1.00  0.00    -0.296 N  
HETATM   13  C   UNL     1     -11.712  11.611  69.853  1.00  0.00    -0.337 C  
HETATM   14  H   UNL     1     -11.037  11.936  67.920  1.00  0.00     0.000 HD 
HETATM   15  O   UNL     1     -12.311  12.004  70.837  1.00  0.00    -0.373 OA 
BRANCH  13  16
HETATM   16  C   UNL     1     -10.993  10.290  69.792  1.00  0.00    -0.338 C  
BRANCH  16  17
HETATM   17  C   UNL     1     -11.256   9.403  71.001  1.00  0.00    -0.412 C  
BRANCH  17  18
HETATM   18  C   UNL     1     -10.043   8.554  71.410  1.00  0.00    -0.302 C  
BRANCH  18  19
HETATM   19  C   UNL     1     -10.229   7.033  71.318  1.00  0.00    -0.203 C  
BRANCH  19  20
HETATM   20  C   UNL     1     -11.346   6.594  70.408  1.00  0.00    -0.421 C  
HETATM   21  C   UNL     1     -11.260   6.405  69.079  1.00  0.00    -0.402 C  
HETATM   22  C   UNL     1     -10.000   6.444  68.251  1.00  0.00    -0.147 C  
HETATM   23  C   UNL     1      -9.747   7.833  67.671  1.00  0.00    -0.193 C  
HETATM   24  C   UNL     1     -10.076   5.400  67.138  1.00  0.00    -0.231 C  
ENDBRANCH  19  20
ENDBRANCH  18  19
ENDBRANCH  17  18
ENDBRANCH  16  17
ENDBRANCH  13  16
ENDBRANCH  11  12
ENDBRANCH   9  11
ENDBRANCH   2   3
TORSDOF 8
ENDMDL
MODEL      114
REMARK 921   NORMALIZED FREE ENERGY PREDICTED BY IDOCK:   -4.94 KCAL/MOL
REMARK 922        TOTAL FREE ENERGY PREDICTED BY IDOCK:   -8.47 KCAL/MOL
REMARK 923 INTER-LIGAND FREE ENERGY PREDICTED BY IDOCK:   -7.25 KCAL/MOL
REMARK 924 INTRA-LIGAND FREE ENERGY PREDICTED BY IDOCK:   -1.22 KCAL/MOL
REMARK 927      BINDING AFFINITY PREDICTED BY RF-SCORE:    0.00 PKD
ROOT
HETATM    1  C   UNL     1      -9.353   9.056  71.116  1.00  0.00    -0.266 C  
HETATM    2  O   UNL     1     -10.619   8.678  70.573  1.00  0.00    -0.205 OA 
ENDROOT
BRANCH   2   3
HETATM    3  C   UNL     1     -10.563   8.232  69.279  1.00  0.00    -0.181 A  
HETATM    4  C   UNL     1     -10.972   6.918  69.052  1.00  0.00    -0.181 A  
HETATM    5  O   UNL     1     -11.399   6.139  70.091  1.00  0.00    -0.382 OA 
HETATM    6  C   UNL     1     -10.923   6.352  67.780  1.00  0.00    -0.425 A  
HETATM    7  C   UNL     1     -10.450   7.118  66.714  1.00  0.00    -0.300 A  
HETATM    8  H   UNL     1     -11.678   5.244  69.937  1.00  0.00     0.000 HD 
HETATM    9  C   UNL     1     -10.054   8.447  66.911  1.00  0.00    -0.364 A  
HETATM   10  C   UNL     1     -10.138   9.005  68.198  1.00  0.00    -0.229 A  
BRANCH   9  11
HETATM   11  C   UNL     1      -9.462   9.266  65.795  1.00  0.00    -0.262 C  
BRANCH  11  12
HETATM   12  N   UNL     1     -10.293  10.381  65.450  1.00  0.00    -0.247 N  
HETATM   13  C   UNL     1     -10.368  10.854  64.161  1.00  0.00    -0.364 C  
HETATM   14  H   UNL     1     -10.843  10.835  66.179  1.00  0.00     0.000 HD 
HETATM   15  O   UNL     1      -9.765  10.375  63.219  1.00  0.00    -0.313 OA 
BRANCH  13  16
HETATM   16  C   UNL     1     -11.216  12.093  64.059  1.00  0.00    -0.458 C  
BRANCH  16  17
HETATM   17  C   UNL     1     -12.132  12.299  65.258  1.00  0.00    -0.361 C  
BRANCH  17  18
HETATM   18  C   UNL     1     -12.476  13.773  65.517  1.00  0.00    -0.548 C  
BRANCH  18  19
HETATM   19  C   UNL     1     -11.992  14.348  66.855  1.00  0.00    -0.425 C  
BRANCH  19  20
HETATM   20  C   UNL     1     -10.914  13.541  67.529  1.00  0.00    -0.283 C  
HETATM   21  C   UNL     1     -10.959  13.041  68.777  1.00  0.00    -0.295 C  
HETATM   22  C   UNL     1     -12.151  13.052  69.702  1.00  0.00    -0.304 C  
HETATM   23  C   UNL     1     -12.145  14.274  70.617  1.00  0.00    -0.417 C  
HETATM   24  C   UNL     1     -12.185  11.764  70.522  1.00  0.00    -0.438 C  
ENDBRANCH  19  20
ENDBRANCH  18  19
ENDBRANCH  17  18
ENDBRANCH  16  17
ENDBRANCH  13  16
ENDBRANCH  11  12
ENDBRANCH   9  11
ENDBRANCH   2   3
TORSDOF 8
ENDMDL
MODEL      115
REMARK 921   NORMALIZED FREE ENERGY PREDICTED BY IDOCK:   -4.94 KCAL/MOL
REMARK 922        TOTAL FREE ENERGY PREDICTED BY IDOCK:   -8.46 KCAL/MOL
REMARK 923 INTER-LIGAND FREE ENERGY PREDICTED BY IDOCK:   -7.28 KCAL/MOL
REMARK 924 INTRA-LIGAND FREE ENERGY PREDICTED BY IDOCK:   -1.18 KCAL/MOL
REMARK 927      BINDING AFFINITY PREDICTED BY RF-SCORE:    0.00 PKD
ROOT
HETATM    1  C   UNL     1     -12.979   8.750  72.154  1.00  0.00    -0.406 C  
HETATM    2  O   UNL     1     -13.480  10.085  72.238  1.00  0.00    -0.417 OA 
ENDROOT
BRANCH   2   3
HETATM    3  C   UNL     1     -12.907  10.955  71.348  1.00  0.00    -0.449 A  
HETATM    4  C   UNL     1     -13.039  12.315  71.630  1.00  0.00    -0.306 A  
HETATM    5  O   UNL     1     -13.715  12.726  72.746  1.00  0.00    -0.696 OA 
HETATM    6  C   UNL     1     -12.524  13.287  70.776  1.00  0.00    -0.403 A  
HETATM    7  C   UNL     1     -11.868  12.888  69.611  1.00  0.00    -0.387 A  
HETATM    8  H   UNL     1     -13.804  13.652  72.938  1.00  0.00     0.000 HD 
HETATM    9  C   UNL     1     -11.703  11.529  69.315  1.00  0.00    -0.397 A  
HETATM   10  C   UNL     1     -12.206  10.566  70.206  1.00  0.00    -0.393 A  
BRANCH   9  11
HETATM   11  C   UNL     1     -11.074  11.074  68.025  1.00  0.00    -0.286 C  
BRANCH  11  12
HETATM   12  N   UNL     1     -10.159  12.046  67.504  1.00  0.00    -0.194 N  
HETATM   13  C   UNL     1      -8.837  12.068  67.883  1.00  0.00    -0.174 C  
HETATM   14  H   UNL     1     -10.496  12.737  66.835  1.00  0.00     0.000 HD 
HETATM   15  O   UNL     1      -8.333  11.280  68.662  1.00  0.00    -0.149 OA 
BRANCH  13  16
HETATM   16  C   UNL     1      -8.096  13.237  67.292  1.00  0.00    -0.150 C  
BRANCH  16  17
HETATM   17  C   UNL     1      -7.591  14.224  68.335  1.00  0.00    -0.124 C  
BRANCH  17  18
HETATM   18  C   UNL     1      -8.705  15.081  68.956  1.00  0.00    -0.203 C  
BRANCH  18  19
HETATM   19  C   UNL     1      -9.627  15.800  67.962  1.00  0.00    -0.210 C  
BRANCH  19  20
HETATM   20  C   UNL     1     -10.572  16.789  68.591  1.00  0.00    -0.353 C  
HETATM   21  C   UNL     1     -10.457  18.129  68.560  1.00  0.00    -0.267 C  
HETATM   22  C   UNL     1      -9.449  18.920  67.764  1.00  0.00    -0.342 C  
HETATM   23  C   UNL     1      -8.197  19.227  68.583  1.00  0.00    -0.408 C  
HETATM   24  C   UNL     1     -10.086  20.209  67.250  1.00  0.00    -0.572 C  
ENDBRANCH  19  20
ENDBRANCH  18  19
ENDBRANCH  17  18
ENDBRANCH  16  17
ENDBRANCH  13  16
ENDBRANCH  11  12
ENDBRANCH   9  11
ENDBRANCH   2   3
TORSDOF 8
ENDMDL
MODEL      116
REMARK 921   NORMALIZED FREE ENERGY PREDICTED BY IDOCK:   -4.92 KCAL/MOL
REMARK 922        TOTAL FREE ENERGY PREDICTED BY IDOCK:   -8.43 KCAL/MOL
REMARK 923 INTER-LIGAND FREE ENERGY PREDICTED BY IDOCK:   -7.43 KCAL/MOL
REMARK 924 INTRA-LIGAND FREE ENERGY PREDICTED BY IDOCK:   -1.00 KCAL/MOL
REMARK 927      BINDING AFFINITY PREDICTED BY RF-SCORE:    0.00 PKD
ROOT
HETATM    1  C   UNL     1     -12.181  14.087  63.793  1.00  0.00    -0.205 C  
HETATM    2  O   UNL     1     -11.945  12.708  63.503  1.00  0.00    -0.480 OA 
ENDROOT
BRANCH   2   3
HETATM    3  C   UNL     1     -11.255  12.040  64.481  1.00  0.00    -0.332 A  
HETATM    4  C   UNL     1     -10.413  11.011  64.060  1.00  0.00    -0.366 A  
HETATM    5  O   UNL     1     -10.305  10.707  62.731  1.00  0.00    -0.738 OA 
HETATM    6  C   UNL     1      -9.691  10.245  64.973  1.00  0.00    -0.370 A  
HETATM    7  C   UNL     1      -9.821  10.513  66.336  1.00  0.00    -0.260 A  
HETATM    8  H   UNL     1      -9.731  10.007  62.445  1.00  0.00     0.000 HD 
HETATM    9  C   UNL     1     -10.643  11.555  66.783  1.00  0.00    -0.289 A  
HETATM   10  C   UNL     1     -11.340  12.332  65.843  1.00  0.00    -0.406 A  
BRANCH   9  11
HETATM   11  C   UNL     1     -10.865  11.809  68.250  1.00  0.00    -0.220 C  
BRANCH  11  12
HETATM   12  N   UNL     1     -10.150  12.963  68.708  1.00  0.00    -0.421 N  
HETATM   13  C   UNL     1     -10.752  14.196  68.801  1.00  0.00    -0.256 C  
HETATM   14  H   UNL     1      -9.169  12.868  68.972  1.00  0.00     0.000 HD 
HETATM   15  O   UNL     1     -11.918  14.411  68.525  1.00  0.00    -0.331 OA 
BRANCH  13  16
HETATM   16  C   UNL     1      -9.782  15.274  69.201  1.00  0.00    -0.243 C  
BRANCH  16  17
HETATM   17  C   UNL     1      -8.338  14.952  68.840  1.00  0.00    -0.178 C  
BRANCH  17  18
HETATM   18  C   UNL     1      -8.098  14.834  67.327  1.00  0.00    -0.232 C  
BRANCH  18  19
HETATM   19  C   UNL     1      -8.735  15.929  66.461  1.00  0.00    -0.350 C  
BRANCH  19  20
HETATM   20  C   UNL     1      -7.960  17.219  66.414  1.00  0.00    -0.338 C  
HETATM   21  C   UNL     1      -8.341  18.395  66.943  1.00  0.00    -0.261 C  
HETATM   22  C   UNL     1      -9.545  18.632  67.821  1.00  0.00    -0.332 C  
HETATM   23  C   UNL     1     -10.766  19.053  67.006  1.00  0.00    -0.516 C  
HETATM   24  C   UNL     1      -9.217  19.680  68.882  1.00  0.00    -0.307 C  
ENDBRANCH  19  20
ENDBRANCH  18  19
ENDBRANCH  17  18
ENDBRANCH  16  17
ENDBRANCH  13  16
ENDBRANCH  11  12
ENDBRANCH   9  11
ENDBRANCH   2   3
TORSDOF 8
ENDMDL
MODEL      117
REMARK 921   NORMALIZED FREE ENERGY PREDICTED BY IDOCK:   -4.88 KCAL/MOL
REMARK 922        TOTAL FREE ENERGY PREDICTED BY IDOCK:   -8.38 KCAL/MOL
REMARK 923 INTER-LIGAND FREE ENERGY PREDICTED BY IDOCK:   -7.26 KCAL/MOL
REMARK 924 INTRA-LIGAND FREE ENERGY PREDICTED BY IDOCK:   -1.12 KCAL/MOL
REMARK 927      BINDING AFFINITY PREDICTED BY RF-SCORE:    0.00 PKD
ROOT
HETATM    1  C   UNL     1     -10.827   6.992  73.308  1.00  0.00    -0.311 C  
HETATM    2  O   UNL     1     -11.888   7.086  72.355  1.00  0.00    -0.255 OA 
ENDROOT
BRANCH   2   3
HETATM    3  C   UNL     1     -11.902   8.259  71.647  1.00  0.00    -0.299 A  
HETATM    4  C   UNL     1     -12.790   9.243  72.083  1.00  0.00    -0.408 A  
HETATM    5  O   UNL     1     -13.594   9.016  73.166  1.00  0.00    -0.979 OA 
HETATM    6  C   UNL     1     -12.910  10.459  71.416  1.00  0.00    -0.556 A  
HETATM    7  C   UNL     1     -12.128  10.693  70.284  1.00  0.00    -0.423 A  
HETATM    8  H   UNL     1     -14.198   9.686  73.463  1.00  0.00     0.000 HD 
HETATM    9  C   UNL     1     -11.213   9.731  69.838  1.00  0.00    -0.271 A  
HETATM   10  C   UNL     1     -11.090   8.521  70.544  1.00  0.00    -0.265 A  
BRANCH   9  11
HETATM   11  C   UNL     1     -10.421   9.924  68.573  1.00  0.00    -0.205 C  
BRANCH  11  12
HETATM   12  N   UNL     1     -10.439  11.287  68.133  1.00  0.00    -0.182 N  
HETATM   13  C   UNL     1     -10.051  11.641  66.862  1.00  0.00    -0.211 C  
HETATM   14  H   UNL     1     -10.748  12.014  68.778  1.00  0.00     0.000 HD 
HETATM   15  O   UNL     1      -9.682  10.851  66.013  1.00  0.00    -0.206 OA 
BRANCH  13  16
HETATM   16  C   UNL     1     -10.052  13.133  66.662  1.00  0.00    -0.264 C  
BRANCH  16  17
HETATM   17  C   UNL     1      -8.769  13.806  67.131  1.00  0.00    -0.231 C  
BRANCH  17  18
HETATM   18  C   UNL     1      -8.705  15.302  66.791  1.00  0.00    -0.304 C  
BRANCH  18  19
HETATM   19  C   UNL     1      -8.805  16.264  67.982  1.00  0.00    -0.182 C  
BRANCH  19  20
HETATM   20  C   UNL     1     -10.143  16.936  68.132  1.00  0.00    -0.299 C  
HETATM   21  C   UNL     1     -11.095  16.621  69.029  1.00  0.00    -0.234 C  
HETATM   22  C   UNL     1     -10.962  15.637  70.165  1.00  0.00    -0.350 C  
HETATM   23  C   UNL     1     -11.435  14.241  69.762  1.00  0.00    -0.317 C  
HETATM   24  C   UNL     1     -11.735  16.138  71.382  1.00  0.00    -0.506 C  
ENDBRANCH  19  20
ENDBRANCH  18  19
ENDBRANCH  17  18
ENDBRANCH  16  17
ENDBRANCH  13  16
ENDBRANCH  11  12
ENDBRANCH   9  11
ENDBRANCH   2   3
TORSDOF 8
ENDMDL
MODEL      118
REMARK 921   NORMALIZED FREE ENERGY PREDICTED BY IDOCK:   -4.88 KCAL/MOL
REMARK 922        TOTAL FREE ENERGY PREDICTED BY IDOCK:   -8.37 KCAL/MOL
REMARK 923 INTER-LIGAND FREE ENERGY PREDICTED BY IDOCK:   -6.98 KCAL/MOL
REMARK 924 INTRA-LIGAND FREE ENERGY PREDICTED BY IDOCK:   -1.39 KCAL/MOL
REMARK 927      BINDING AFFINITY PREDICTED BY RF-SCORE:    0.00 PKD
ROOT
HETATM    1  C   UNL     1     -11.639  12.221  67.222  1.00  0.00    -0.357 C  
HETATM    2  O   UNL     1     -11.088  12.932  68.332  1.00  0.00    -0.235 OA 
ENDROOT
BRANCH   2   3
HETATM    3  C   UNL     1     -11.755  12.731  69.512  1.00  0.00    -0.318 A  
HETATM    4  C   UNL     1     -12.043  13.868  70.267  1.00  0.00    -0.353 A  
HETATM    5  O   UNL     1     -11.664  15.105  69.826  1.00  0.00    -0.278 OA 
HETATM    6  C   UNL     1     -12.687  13.776  71.499  1.00  0.00    -0.432 A  
HETATM    7  C   UNL     1     -13.045  12.518  71.986  1.00  0.00    -0.472 A  
HETATM    8  H   UNL     1     -11.861  15.879  70.341  1.00  0.00     0.000 HD 
HETATM    9  C   UNL     1     -12.787  11.363  71.237  1.00  0.00    -0.481 A  
HETATM   10  C   UNL     1     -12.161  11.483  69.984  1.00  0.00    -0.408 A  
BRANCH   9  11
HETATM   11  C   UNL     1     -13.086   9.991  71.777  1.00  0.00    -0.457 C  
BRANCH  11  12
HETATM   12  N   UNL     1     -11.894   9.222  71.976  1.00  0.00    -0.346 N  
HETATM   13  C   UNL     1     -11.914   7.847  71.986  1.00  0.00    -0.319 C  
HETATM   14  H   UNL     1     -11.007   9.707  72.113  1.00  0.00     0.000 HD 
HETATM   15  O   UNL     1     -12.915   7.175  71.818  1.00  0.00    -0.352 OA 
BRANCH  13  16
HETATM   16  C   UNL     1     -10.568   7.261  72.318  1.00  0.00    -0.257 C  
BRANCH  16  17
HETATM   17  C   UNL     1     -10.414   5.812  71.877  1.00  0.00    -0.272 C  
BRANCH  17  18
HETATM   18  C   UNL     1      -9.266   5.596  70.880  1.00  0.00    -0.178 C  
BRANCH  18  19
HETATM   19  C   UNL     1      -9.680   5.194  69.458  1.00  0.00    -0.262 C  
BRANCH  19  20
HETATM   20  C   UNL     1     -10.895   5.913  68.935  1.00  0.00    -0.373 C  
HETATM   21  C   UNL     1     -10.907   7.104  68.311  1.00  0.00    -0.156 C  
HETATM   22  C   UNL     1      -9.699   7.893  67.870  1.00  0.00    -0.184 C  
HETATM   23  C   UNL     1      -9.262   8.899  68.932  1.00  0.00    -0.140 C  
HETATM   24  C   UNL     1      -9.992   8.599  66.548  1.00  0.00    -0.353 C  
ENDBRANCH  19  20
ENDBRANCH  18  19
ENDBRANCH  17  18
ENDBRANCH  16  17
ENDBRANCH  13  16
ENDBRANCH  11  12
ENDBRANCH   9  11
ENDBRANCH   2   3
TORSDOF 8
ENDMDL
MODEL      119
REMARK 921   NORMALIZED FREE ENERGY PREDICTED BY IDOCK:   -4.86 KCAL/MOL
REMARK 922        TOTAL FREE ENERGY PREDICTED BY IDOCK:   -8.35 KCAL/MOL
REMARK 923 INTER-LIGAND FREE ENERGY PREDICTED BY IDOCK:   -7.65 KCAL/MOL
REMARK 924 INTRA-LIGAND FREE ENERGY PREDICTED BY IDOCK:   -0.70 KCAL/MOL
REMARK 927      BINDING AFFINITY PREDICTED BY RF-SCORE:    0.00 PKD
ROOT
HETATM    1  C   UNL     1     -10.067   6.827  69.825  1.00  0.00    -0.183 C  
HETATM    2  O   UNL     1     -10.107   7.444  71.113  1.00  0.00    -0.187 OA 
ENDROOT
BRANCH   2   3
HETATM    3  C   UNL     1     -11.168   8.293  71.294  1.00  0.00    -0.259 A  
HETATM    4  C   UNL     1     -12.312   7.747  71.876  1.00  0.00    -0.310 A  
HETATM    5  O   UNL     1     -12.343   6.427  72.233  1.00  0.00    -0.510 OA 
HETATM    6  C   UNL     1     -13.460   8.510  72.075  1.00  0.00    -0.409 A  
HETATM    7  C   UNL     1     -13.462   9.848  71.678  1.00  0.00    -0.421 A  
HETATM    8  H   UNL     1     -13.122   6.056  72.629  1.00  0.00     0.000 HD 
HETATM    9  C   UNL     1     -12.319  10.426  71.113  1.00  0.00    -0.505 A  
HETATM   10  C   UNL     1     -11.164   9.644  70.946  1.00  0.00    -0.422 A  
BRANCH   9  11
HETATM   11  C   UNL     1     -12.323  11.842  70.600  1.00  0.00    -0.328 C  
BRANCH  11  12
HETATM   12  N   UNL     1     -11.191  12.112  69.764  1.00  0.00    -0.488 N  
HETATM   13  C   UNL     1     -11.239  11.929  68.402  1.00  0.00    -0.258 C  
HETATM   14  H   UNL     1     -10.328  12.449  70.191  1.00  0.00     0.000 HD 
HETATM   15  O   UNL     1     -12.222  11.546  67.796  1.00  0.00    -0.560 OA 
BRANCH  13  16
HETATM   16  C   UNL     1      -9.905  12.173  67.749  1.00  0.00    -0.199 C  
BRANCH  16  17
HETATM   17  C   UNL     1      -9.210  10.895  67.298  1.00  0.00    -0.160 C  
BRANCH  17  18
HETATM   18  C   UNL     1     -10.080  10.015  66.388  1.00  0.00    -0.307 C  
BRANCH  18  19
HETATM   19  C   UNL     1      -9.807  10.134  64.883  1.00  0.00    -0.390 C  
BRANCH  19  20
HETATM   20  C   UNL     1      -9.585  11.542  64.396  1.00  0.00    -0.171 C  
HETATM   21  C   UNL     1     -10.540  12.456  64.146  1.00  0.00    -0.414 C  
HETATM   22  C   UNL     1     -12.012  12.315  64.444  1.00  0.00    -0.473 C  
HETATM   23  C   UNL     1     -12.781  11.763  63.246  1.00  0.00    -0.314 C  
HETATM   24  C   UNL     1     -12.586  13.661  64.881  1.00  0.00    -0.380 C  
ENDBRANCH  19  20
ENDBRANCH  18  19
ENDBRANCH  17  18
ENDBRANCH  16  17
ENDBRANCH  13  16
ENDBRANCH  11  12
ENDBRANCH   9  11
ENDBRANCH   2   3
TORSDOF 8
ENDMDL
MODEL      120
REMARK 921   NORMALIZED FREE ENERGY PREDICTED BY IDOCK:   -4.84 KCAL/MOL
REMARK 922        TOTAL FREE ENERGY PREDICTED BY IDOCK:   -8.32 KCAL/MOL
REMARK 923 INTER-LIGAND FREE ENERGY PREDICTED BY IDOCK:   -7.67 KCAL/MOL
REMARK 924 INTRA-LIGAND FREE ENERGY PREDICTED BY IDOCK:   -0.64 KCAL/MOL
REMARK 927      BINDING AFFINITY PREDICTED BY RF-SCORE:    0.00 PKD
ROOT
HETATM    1  C   UNL     1     -13.220  10.383  71.346  1.00  0.00    -0.364 C  
HETATM    2  O   UNL     1     -12.138  11.214  70.921  1.00  0.00    -0.346 OA 
ENDROOT
BRANCH   2   3
HETATM    3  C   UNL     1     -11.441  10.721  69.850  1.00  0.00    -0.321 A  
HETATM    4  C   UNL     1     -10.412   9.822  70.134  1.00  0.00    -0.286 A  
HETATM    5  O   UNL     1     -10.138   9.472  71.427  1.00  0.00    -0.258 OA 
HETATM    6  C   UNL     1      -9.618   9.286  69.123  1.00  0.00    -0.161 A  
HETATM    7  C   UNL     1      -9.855   9.663  67.801  1.00  0.00    -0.192 A  
HETATM    8  H   UNL     1      -9.438   8.860  71.620  1.00  0.00     0.000 HD 
HETATM    9  C   UNL     1     -10.896  10.546  67.487  1.00  0.00    -0.357 A  
HETATM   10  C   UNL     1     -11.702  11.053  68.521  1.00  0.00    -0.348 A  
BRANCH   9  11
HETATM   11  C   UNL     1     -11.118  11.034  66.080  1.00  0.00    -0.012 C  
BRANCH  11  12
HETATM   12  N   UNL     1     -11.537  12.403  66.048  1.00  0.00    -0.383 N  
HETATM   13  C   UNL     1     -12.522  12.837  65.191  1.00  0.00    -0.501 C  
HETATM   14  H   UNL     1     -11.095  13.074  66.676  1.00  0.00     0.000 HD 
HETATM   15  O   UNL     1     -13.122  12.117  64.415  1.00  0.00    -0.740 OA 
BRANCH  13  16
HETATM   16  C   UNL     1     -12.717  14.328  65.259  1.00  0.00    -0.358 C  
BRANCH  16  17
HETATM   17  C   UNL     1     -11.913  15.092  64.216  1.00  0.00    -0.310 C  
BRANCH  17  18
HETATM   18  C   UNL     1     -10.970  16.142  64.821  1.00  0.00    -0.330 C  
BRANCH  18  19
HETATM   19  C   UNL     1     -10.480  15.859  66.247  1.00  0.00    -0.324 C  
BRANCH  19  20
HETATM   20  C   UNL     1      -9.233  16.606  66.640  1.00  0.00    -0.277 C  
HETATM   21  C   UNL     1      -9.157  17.907  66.974  1.00  0.00    -0.256 C  
HETATM   22  C   UNL     1     -10.320  18.847  67.174  1.00  0.00    -0.479 C  
HETATM   23  C   UNL     1     -10.662  19.604  65.892  1.00  0.00    -0.515 C  
HETATM   24  C   UNL     1     -10.014  19.821  68.309  1.00  0.00    -0.557 C  
ENDBRANCH  19  20
ENDBRANCH  18  19
ENDBRANCH  17  18
ENDBRANCH  16  17
ENDBRANCH  13  16
ENDBRANCH  11  12
ENDBRANCH   9  11
ENDBRANCH   2   3
TORSDOF 8
ENDMDL
MODEL      121
REMARK 921   NORMALIZED FREE ENERGY PREDICTED BY IDOCK:   -4.81 KCAL/MOL
REMARK 922        TOTAL FREE ENERGY PREDICTED BY IDOCK:   -8.28 KCAL/MOL
REMARK 923 INTER-LIGAND FREE ENERGY PREDICTED BY IDOCK:   -7.14 KCAL/MOL
REMARK 924 INTRA-LIGAND FREE ENERGY PREDICTED BY IDOCK:   -1.13 KCAL/MOL
REMARK 927      BINDING AFFINITY PREDICTED BY RF-SCORE:    0.00 PKD
ROOT
HETATM    1  C   UNL     1     -14.341   7.512  71.713  1.00  0.00    -0.445 C  
HETATM    2  O   UNL     1     -13.036   8.011  72.011  1.00  0.00    -0.317 OA 
ENDROOT
BRANCH   2   3
HETATM    3  C   UNL     1     -12.789   9.265  71.516  1.00  0.00    -0.354 A  
HETATM    4  C   UNL     1     -11.964   9.342  70.393  1.00  0.00    -0.029 A  
HETATM    5  O   UNL     1     -11.442   8.206  69.840  1.00  0.00    -0.459 OA 
HETATM    6  C   UNL     1     -11.621  10.568  69.829  1.00  0.00    -0.368 A  
HETATM    7  C   UNL     1     -12.109  11.741  70.405  1.00  0.00    -0.440 A  
HETATM    8  H   UNL     1     -10.882   8.258  69.075  1.00  0.00     0.000 HD 
HETATM    9  C   UNL     1     -12.956  11.690  71.518  1.00  0.00    -0.463 A  
HETATM   10  C   UNL     1     -13.312  10.440  72.054  1.00  0.00    -0.440 A  
BRANCH   9  11
HETATM   11  C   UNL     1     -13.428  12.942  72.208  1.00  0.00    -0.531 C  
BRANCH  11  12
HETATM   12  N   UNL     1     -12.550  14.049  71.966  1.00  0.00    -0.269 N  
HETATM   13  C   UNL     1     -13.024  15.266  71.534  1.00  0.00    -0.412 C  
HETATM   14  H   UNL     1     -11.549  13.932  72.119  1.00  0.00     0.000 HD 
HETATM   15  O   UNL     1     -14.200  15.513  71.337  1.00  0.00    -0.527 OA 
BRANCH  13  16
HETATM   16  C   UNL     1     -11.913  16.239  71.247  1.00  0.00    -0.264 C  
BRANCH  16  17
HETATM   17  C   UNL     1     -10.843  15.679  70.319  1.00  0.00    -0.366 C  
BRANCH  17  18
HETATM   18  C   UNL     1     -11.050  16.063  68.847  1.00  0.00    -0.331 C  
BRANCH  18  19
HETATM   19  C   UNL     1      -9.772  16.303  68.032  1.00  0.00    -0.230 C  
BRANCH  19  20
HETATM   20  C   UNL     1      -9.579  15.355  66.878  1.00  0.00    -0.239 C  
HETATM   21  C   UNL     1      -8.831  14.237  66.883  1.00  0.00    -0.234 C  
HETATM   22  C   UNL     1      -8.156  13.620  68.083  1.00  0.00    -0.156 C  
HETATM   23  C   UNL     1      -6.718  14.109  68.238  1.00  0.00    -0.108 C  
HETATM   24  C   UNL     1      -8.199  12.097  67.979  1.00  0.00    -0.158 C  
ENDBRANCH  19  20
ENDBRANCH  18  19
ENDBRANCH  17  18
ENDBRANCH  16  17
ENDBRANCH  13  16
ENDBRANCH  11  12
ENDBRANCH   9  11
ENDBRANCH   2   3
TORSDOF 8
ENDMDL
MODEL      122
REMARK 921   NORMALIZED FREE ENERGY PREDICTED BY IDOCK:   -4.80 KCAL/MOL
REMARK 922        TOTAL FREE ENERGY PREDICTED BY IDOCK:   -8.25 KCAL/MOL
REMARK 923 INTER-LIGAND FREE ENERGY PREDICTED BY IDOCK:   -7.11 KCAL/MOL
REMARK 924 INTRA-LIGAND FREE ENERGY PREDICTED BY IDOCK:   -1.14 KCAL/MOL
REMARK 927      BINDING AFFINITY PREDICTED BY RF-SCORE:    0.00 PKD
ROOT
HETATM    1  C   UNL     1      -9.591   8.923  70.979  1.00  0.00    -0.255 C  
HETATM    2  O   UNL     1     -10.731   8.862  70.120  1.00  0.00    -0.216 OA 
ENDROOT
BRANCH   2   3
HETATM    3  C   UNL     1     -10.516   8.179  68.952  1.00  0.00    -0.185 A  
HETATM    4  C   UNL     1     -11.111   6.922  68.844  1.00  0.00    -0.114 A  
HETATM    5  O   UNL     1     -11.863   6.423  69.871  1.00  0.00    -0.552 OA 
HETATM    6  C   UNL     1     -10.931   6.129  67.714  1.00  0.00    -0.400 A  
HETATM    7  C   UNL     1     -10.132   6.602  66.672  1.00  0.00    -0.202 A  
HETATM    8  H   UNL     1     -12.269   5.568  69.797  1.00  0.00     0.000 HD 
HETATM    9  C   UNL     1      -9.541   7.870  66.746  1.00  0.00    -0.278 A  
HETATM   10  C   UNL     1      -9.760   8.665  67.885  1.00  0.00    -0.192 A  
BRANCH   9  11
HETATM   11  C   UNL     1      -8.609   8.369  65.675  1.00  0.00    -0.174 C  
BRANCH  11  12
HETATM   12  N   UNL     1      -9.308   9.076  64.643  1.00  0.00    -0.381 N  
HETATM   13  C   UNL     1      -9.343  10.451  64.607  1.00  0.00    -0.254 C  
HETATM   14  H   UNL     1      -9.791   8.548  63.917  1.00  0.00     0.000 HD 
HETATM   15  O   UNL     1      -8.788  11.172  65.415  1.00  0.00    -0.180 OA 
BRANCH  13  16
HETATM   16  C   UNL     1     -10.222  10.968  63.501  1.00  0.00    -0.424 C  
BRANCH  16  17
HETATM   17  C   UNL     1     -10.710  12.391  63.731  1.00  0.00    -0.492 C  
BRANCH  17  18
HETATM   18  C   UNL     1     -12.238  12.505  63.833  1.00  0.00    -0.590 C  
BRANCH  18  19
HETATM   19  C   UNL     1     -12.773  13.235  65.072  1.00  0.00    -0.438 C  
BRANCH  19  20
HETATM   20  C   UNL     1     -12.028  12.935  66.345  1.00  0.00    -0.462 C  
HETATM   21  C   UNL     1     -11.277  13.800  67.050  1.00  0.00    -0.326 C  
HETATM   22  C   UNL     1     -11.150  15.282  66.799  1.00  0.00    -0.278 C  
HETATM   23  C   UNL     1      -9.963  15.603  65.892  1.00  0.00    -0.379 C  
HETATM   24  C   UNL     1     -11.031  16.028  68.126  1.00  0.00    -0.339 C  
ENDBRANCH  19  20
ENDBRANCH  18  19
ENDBRANCH  17  18
ENDBRANCH  16  17
ENDBRANCH  13  16
ENDBRANCH  11  12
ENDBRANCH   9  11
ENDBRANCH   2   3
TORSDOF 8
ENDMDL
MODEL      123
REMARK 921   NORMALIZED FREE ENERGY PREDICTED BY IDOCK:   -4.79 KCAL/MOL
REMARK 922        TOTAL FREE ENERGY PREDICTED BY IDOCK:   -8.25 KCAL/MOL
REMARK 923 INTER-LIGAND FREE ENERGY PREDICTED BY IDOCK:   -7.41 KCAL/MOL
REMARK 924 INTRA-LIGAND FREE ENERGY PREDICTED BY IDOCK:   -0.84 KCAL/MOL
REMARK 927      BINDING AFFINITY PREDICTED BY RF-SCORE:    0.00 PKD
ROOT
HETATM    1  C   UNL     1      -8.323  11.194  68.550  1.00  0.00    -0.154 C  
HETATM    2  O   UNL     1      -9.722  11.205  68.840  1.00  0.00    -0.198 OA 
ENDROOT
BRANCH   2   3
HETATM    3  C   UNL     1     -10.407  12.234  68.250  1.00  0.00    -0.221 A  
HETATM    4  C   UNL     1     -11.371  12.872  69.032  1.00  0.00    -0.290 A  
HETATM    5  O   UNL     1     -11.597  12.465  70.317  1.00  0.00    -0.525 OA 
HETATM    6  C   UNL     1     -12.149  13.908  68.522  1.00  0.00    -0.331 A  
HETATM    7  C   UNL     1     -11.962  14.310  67.198  1.00  0.00    -0.449 A  
HETATM    8  H   UNL     1     -12.252  12.900  70.850  1.00  0.00     0.000 HD 
HETATM    9  C   UNL     1     -10.986  13.701  66.399  1.00  0.00    -0.297 A  
HETATM   10  C   UNL     1     -10.194  12.676  66.944  1.00  0.00    -0.242 A  
BRANCH   9  11
HETATM   11  C   UNL     1     -10.823  14.058  64.946  1.00  0.00    -0.410 C  
BRANCH  11  12
HETATM   12  N   UNL     1     -10.042  13.085  64.241  1.00  0.00    -0.617 N  
HETATM   13  C   UNL     1     -10.628  12.032  63.577  1.00  0.00    -0.465 C  
HETATM   14  H   UNL     1      -9.026  13.175  64.230  1.00  0.00     0.000 HD 
HETATM   15  O   UNL     1     -11.829  11.844  63.516  1.00  0.00    -0.473 OA 
BRANCH  13  16
HETATM   16  C   UNL     1      -9.610  11.085  63.003  1.00  0.00    -0.386 C  
BRANCH  16  17
HETATM   17  C   UNL     1      -8.948  10.201  64.051  1.00  0.00    -0.265 C  
BRANCH  17  18
HETATM   18  C   UNL     1      -9.870   9.856  65.229  1.00  0.00    -0.373 C  
BRANCH  18  19
HETATM   19  C   UNL     1      -9.492   8.602  66.029  1.00  0.00    -0.278 C  
BRANCH  19  20
HETATM   20  C   UNL     1     -10.481   8.221  67.099  1.00  0.00    -0.386 C  
HETATM   21  C   UNL     1     -10.684   6.986  67.591  1.00  0.00    -0.331 C  
HETATM   22  C   UNL     1      -9.863   5.757  67.287  1.00  0.00    -0.158 C  
HETATM   23  C   UNL     1     -10.449   4.961  66.122  1.00  0.00    -0.346 C  
HETATM   24  C   UNL     1      -9.750   4.884  68.534  1.00  0.00    -0.218 C  
ENDBRANCH  19  20
ENDBRANCH  18  19
ENDBRANCH  17  18
ENDBRANCH  16  17
ENDBRANCH  13  16
ENDBRANCH  11  12
ENDBRANCH   9  11
ENDBRANCH   2   3
TORSDOF 8
ENDMDL
MODEL      124
REMARK 921   NORMALIZED FREE ENERGY PREDICTED BY IDOCK:   -4.79 KCAL/MOL
REMARK 922        TOTAL FREE ENERGY PREDICTED BY IDOCK:   -8.25 KCAL/MOL
REMARK 923 INTER-LIGAND FREE ENERGY PREDICTED BY IDOCK:   -7.68 KCAL/MOL
REMARK 924 INTRA-LIGAND FREE ENERGY PREDICTED BY IDOCK:   -0.57 KCAL/MOL
REMARK 927      BINDING AFFINITY PREDICTED BY RF-SCORE:    0.00 PKD
ROOT
HETATM    1  C   UNL     1     -10.398  19.733  68.157  1.00  0.00    -0.431 C  
HETATM    2  O   UNL     1      -9.519  18.688  68.576  1.00  0.00    -0.322 OA 
ENDROOT
BRANCH   2   3
HETATM    3  C   UNL     1      -9.637  17.532  67.850  1.00  0.00    -0.277 A  
HETATM    4  C   UNL     1      -8.710  17.340  66.825  1.00  0.00    -0.251 A  
HETATM    5  O   UNL     1      -7.746  18.279  66.581  1.00  0.00    -0.217 OA 
HETATM    6  C   UNL     1      -8.759  16.216  66.004  1.00  0.00    -0.282 A  
HETATM    7  C   UNL     1      -9.762  15.268  66.211  1.00  0.00    -0.325 A  
HETATM    8  H   UNL     1      -7.115  18.148  65.883  1.00  0.00     0.000 HD 
HETATM    9  C   UNL     1     -10.690  15.426  67.247  1.00  0.00    -0.307 A  
HETATM   10  C   UNL     1     -10.605  16.554  68.081  1.00  0.00    -0.329 A  
BRANCH   9  11
HETATM   11  C   UNL     1     -11.830  14.461  67.438  1.00  0.00    -0.400 C  
BRANCH  11  12
HETATM   12  N   UNL     1     -11.849  13.908  68.759  1.00  0.00    -0.344 N  
HETATM   13  C   UNL     1     -12.002  12.559  68.976  1.00  0.00    -0.233 C  
HETATM   14  H   UNL     1     -11.745  14.531  69.560  1.00  0.00     0.000 HD 
HETATM   15  O   UNL     1     -12.119  11.732  68.091  1.00  0.00    -0.556 OA 
BRANCH  13  16
HETATM   16  C   UNL     1     -12.099  12.226  70.440  1.00  0.00    -0.385 C  
BRANCH  16  17
HETATM   17  C   UNL     1     -12.236  10.734  70.713  1.00  0.00    -0.480 C  
BRANCH  17  18
HETATM   18  C   UNL     1     -13.387  10.391  71.671  1.00  0.00    -0.432 C  
BRANCH  18  19
HETATM   19  C   UNL     1     -13.259   9.058  72.420  1.00  0.00    -0.507 C  
BRANCH  19  20
HETATM   20  C   UNL     1     -12.790   7.907  71.571  1.00  0.00    -0.340 C  
HETATM   21  C   UNL     1     -11.800   7.047  71.874  1.00  0.00    -0.341 C  
HETATM   22  C   UNL     1     -11.061   6.963  73.187  1.00  0.00    -0.239 C  
HETATM   23  C   UNL     1      -9.789   7.808  73.175  1.00  0.00    -0.361 C  
HETATM   24  C   UNL     1     -10.738   5.506  73.510  1.00  0.00    -0.322 C  
ENDBRANCH  19  20
ENDBRANCH  18  19
ENDBRANCH  17  18
ENDBRANCH  16  17
ENDBRANCH  13  16
ENDBRANCH  11  12
ENDBRANCH   9  11
ENDBRANCH   2   3
TORSDOF 8
ENDMDL
MODEL      125
REMARK 921   NORMALIZED FREE ENERGY PREDICTED BY IDOCK:   -4.78 KCAL/MOL
REMARK 922        TOTAL FREE ENERGY PREDICTED BY IDOCK:   -8.23 KCAL/MOL
REMARK 923 INTER-LIGAND FREE ENERGY PREDICTED BY IDOCK:   -7.43 KCAL/MOL
REMARK 924 INTRA-LIGAND FREE ENERGY PREDICTED BY IDOCK:   -0.80 KCAL/MOL
REMARK 927      BINDING AFFINITY PREDICTED BY RF-SCORE:    0.00 PKD
ROOT
HETATM    1  C   UNL     1     -12.062   9.759  71.502  1.00  0.00    -0.409 C  
HETATM    2  O   UNL     1     -10.740   9.596  70.986  1.00  0.00    -0.316 OA 
ENDROOT
BRANCH   2   3
HETATM    3  C   UNL     1     -10.692   9.315  69.646  1.00  0.00    -0.230 A  
HETATM    4  C   UNL     1     -10.614   7.967  69.292  1.00  0.00    -0.184 A  
HETATM    5  O   UNL     1     -10.587   7.000  70.259  1.00  0.00    -0.214 OA 
HETATM    6  C   UNL     1     -10.527   7.571  67.960  1.00  0.00    -0.253 A  
HETATM    7  C   UNL     1     -10.511   8.545  66.962  1.00  0.00    -0.362 A  
HETATM    8  H   UNL     1     -10.534   6.083  70.018  1.00  0.00     0.000 HD 
HETATM    9  C   UNL     1     -10.611   9.903  67.289  1.00  0.00    -0.316 A  
HETATM   10  C   UNL     1     -10.726  10.279  68.638  1.00  0.00    -0.255 A  
BRANCH   9  11
HETATM   11  C   UNL     1     -10.511  10.976  66.237  1.00  0.00    -0.254 C  
BRANCH  11  12
HETATM   12  N   UNL     1     -10.990  12.240  66.715  1.00  0.00    -0.263 N  
HETATM   13  C   UNL     1     -11.779  13.054  65.937  1.00  0.00    -0.394 C  
HETATM   14  H   UNL     1     -10.738  12.543  67.656  1.00  0.00     0.000 HD 
HETATM   15  O   UNL     1     -12.146  12.779  64.810  1.00  0.00    -0.381 OA 
BRANCH  13  16
HETATM   16  C   UNL     1     -12.069  14.371  66.605  1.00  0.00    -0.392 C  
BRANCH  16  17
HETATM   17  C   UNL     1     -10.821  15.077  67.117  1.00  0.00    -0.314 C  
BRANCH  17  18
HETATM   18  C   UNL     1     -11.126  16.231  68.084  1.00  0.00    -0.329 C  
BRANCH  18  19
HETATM   19  C   UNL     1     -11.995  15.876  69.297  1.00  0.00    -0.254 C  
BRANCH  19  20
HETATM   20  C   UNL     1     -11.528  14.672  70.070  1.00  0.00    -0.313 C  
HETATM   21  C   UNL     1     -12.105  14.162  71.173  1.00  0.00    -0.392 C  
HETATM   22  C   UNL     1     -13.419  14.594  71.775  1.00  0.00    -0.459 C  
HETATM   23  C   UNL     1     -13.225  15.662  72.850  1.00  0.00    -0.630 C  
HETATM   24  C   UNL     1     -14.155  13.384  72.344  1.00  0.00    -0.517 C  
ENDBRANCH  19  20
ENDBRANCH  18  19
ENDBRANCH  17  18
ENDBRANCH  16  17
ENDBRANCH  13  16
ENDBRANCH  11  12
ENDBRANCH   9  11
ENDBRANCH   2   3
TORSDOF 8
ENDMDL
MODEL      126
REMARK 921   NORMALIZED FREE ENERGY PREDICTED BY IDOCK:   -4.74 KCAL/MOL
REMARK 922        TOTAL FREE ENERGY PREDICTED BY IDOCK:   -8.17 KCAL/MOL
REMARK 923 INTER-LIGAND FREE ENERGY PREDICTED BY IDOCK:   -6.78 KCAL/MOL
REMARK 924 INTRA-LIGAND FREE ENERGY PREDICTED BY IDOCK:   -1.40 KCAL/MOL
REMARK 927      BINDING AFFINITY PREDICTED BY RF-SCORE:    0.00 PKD
ROOT
HETATM    1  C   UNL     1     -12.779  13.536  65.567  1.00  0.00    -0.440 C  
HETATM    2  O   UNL     1     -12.268  12.239  65.881  1.00  0.00    -0.634 OA 
ENDROOT
BRANCH   2   3
HETATM    3  C   UNL     1     -11.128  12.255  66.641  1.00  0.00    -0.297 A  
HETATM    4  C   UNL     1     -11.106  11.412  67.752  1.00  0.00    -0.265 A  
HETATM    5  O   UNL     1     -12.186  10.624  68.043  1.00  0.00    -0.590 OA 
HETATM    6  C   UNL     1     -10.012  11.373  68.612  1.00  0.00    -0.209 A  
HETATM    7  C   UNL     1      -8.918  12.201  68.357  1.00  0.00    -0.146 A  
HETATM    8  H   UNL     1     -12.170  10.049  68.799  1.00  0.00     0.000 HD 
HETATM    9  C   UNL     1      -8.905  13.040  67.235  1.00  0.00    -0.208 A  
HETATM   10  C   UNL     1     -10.010  13.042  66.366  1.00  0.00    -0.277 A  
BRANCH   9  11
HETATM   11  C   UNL     1      -7.776  14.003  66.984  1.00  0.00     0.181 C  
BRANCH  11  12
HETATM   12  N   UNL     1      -8.067  15.313  67.486  1.00  0.00    -0.158 N  
HETATM   13  C   UNL     1      -8.670  16.269  66.702  1.00  0.00    -0.259 C  
HETATM   14  H   UNL     1      -7.821  15.542  68.449  1.00  0.00     0.000 HD 
HETATM   15  O   UNL     1      -9.016  16.091  65.549  1.00  0.00    -0.270 OA 
BRANCH  13  16
HETATM   16  C   UNL     1      -8.778  17.595  67.406  1.00  0.00    -0.235 C  
BRANCH  16  17
HETATM   17  C   UNL     1      -8.941  17.468  68.914  1.00  0.00    -0.144 C  
BRANCH  17  18
HETATM   18  C   UNL     1     -10.408  17.449  69.370  1.00  0.00    -0.120 C  
BRANCH  18  19
HETATM   19  C   UNL     1     -11.324  16.459  68.638  1.00  0.00    -0.289 C  
BRANCH  19  20
HETATM   20  C   UNL     1     -11.319  15.065  69.206  1.00  0.00    -0.311 C  
HETATM   21  C   UNL     1     -11.933  14.664  70.333  1.00  0.00    -0.375 C  
HETATM   22  C   UNL     1     -12.877  15.485  71.177  1.00  0.00    -0.551 C  
HETATM   23  C   UNL     1     -12.143  16.208  72.304  1.00  0.00    -0.616 C  
HETATM   24  C   UNL     1     -13.983  14.594  71.738  1.00  0.00    -0.564 C  
ENDBRANCH  19  20
ENDBRANCH  18  19
ENDBRANCH  17  18
ENDBRANCH  16  17
ENDBRANCH  13  16
ENDBRANCH  11  12
ENDBRANCH   9  11
ENDBRANCH   2   3
TORSDOF 8
ENDMDL
MODEL      127
REMARK 921   NORMALIZED FREE ENERGY PREDICTED BY IDOCK:   -4.73 KCAL/MOL
REMARK 922        TOTAL FREE ENERGY PREDICTED BY IDOCK:   -8.16 KCAL/MOL
REMARK 923 INTER-LIGAND FREE ENERGY PREDICTED BY IDOCK:   -6.82 KCAL/MOL
REMARK 924 INTRA-LIGAND FREE ENERGY PREDICTED BY IDOCK:   -1.34 KCAL/MOL
REMARK 927      BINDING AFFINITY PREDICTED BY RF-SCORE:    0.00 PKD
ROOT
HETATM    1  C   UNL     1     -11.586  16.000  64.379  1.00  0.00    -0.212 C  
HETATM    2  O   UNL     1     -10.931  17.236  64.670  1.00  0.00    -1.013 OA 
ENDROOT
BRANCH   2   3
HETATM    3  C   UNL     1     -10.653  17.424  65.998  1.00  0.00    -0.210 A  
HETATM    4  C   UNL     1     -10.578  18.745  66.440  1.00  0.00    -0.368 A  
HETATM    5  O   UNL     1     -10.775  19.778  65.566  1.00  0.00    -0.479 OA 
HETATM    6  C   UNL     1     -10.268  19.051  67.763  1.00  0.00    -0.481 A  
HETATM    7  C   UNL     1     -10.023  18.011  68.661  1.00  0.00    -0.396 A  
HETATM    8  H   UNL     1     -10.725  20.677  65.867  1.00  0.00     0.000 HD 
HETATM    9  C   UNL     1     -10.113  16.676  68.248  1.00  0.00    -0.268 A  
HETATM   10  C   UNL     1     -10.455  16.391  66.914  1.00  0.00    -0.289 A  
BRANCH   9  11
HETATM   11  C   UNL     1      -9.771  15.540  69.174  1.00  0.00    -0.252 C  
BRANCH  11  12
HETATM   12  N   UNL     1      -9.382  14.363  68.456  1.00  0.00    -0.203 N  
HETATM   13  C   UNL     1      -8.060  14.016  68.299  1.00  0.00    -0.148 C  
HETATM   14  H   UNL     1     -10.104  13.766  68.051  1.00  0.00     0.000 HD 
HETATM   15  O   UNL     1      -7.127  14.650  68.754  1.00  0.00    -0.100 OA 
BRANCH  13  16
HETATM   16  C   UNL     1      -7.891  12.805  67.422  1.00  0.00    -0.172 C  
BRANCH  16  17
HETATM   17  C   UNL     1      -7.734  11.509  68.205  1.00  0.00    -0.120 C  
BRANCH  17  18
HETATM   18  C   UNL     1      -8.134  10.260  67.404  1.00  0.00    -0.110 C  
BRANCH  18  19
HETATM   19  C   UNL     1      -7.946  10.351  65.884  1.00  0.00    -0.151 C  
BRANCH  19  20
HETATM   20  C   UNL     1      -9.073   9.761  65.079  1.00  0.00    -0.280 C  
HETATM   21  C   UNL     1     -10.183  10.404  64.674  1.00  0.00    -0.305 C  
HETATM   22  C   UNL     1     -10.459  11.881  64.809  1.00  0.00    -0.333 C  
HETATM   23  C   UNL     1     -11.220  12.199  66.094  1.00  0.00    -0.386 C  
HETATM   24  C   UNL     1     -11.229  12.381  63.589  1.00  0.00    -0.544 C  
ENDBRANCH  19  20
ENDBRANCH  18  19
ENDBRANCH  17  18
ENDBRANCH  16  17
ENDBRANCH  13  16
ENDBRANCH  11  12
ENDBRANCH   9  11
ENDBRANCH   2   3
TORSDOF 8
ENDMDL
MODEL      128
REMARK 921   NORMALIZED FREE ENERGY PREDICTED BY IDOCK:   -4.72 KCAL/MOL
REMARK 922        TOTAL FREE ENERGY PREDICTED BY IDOCK:   -8.14 KCAL/MOL
REMARK 923 INTER-LIGAND FREE ENERGY PREDICTED BY IDOCK:   -7.63 KCAL/MOL
REMARK 924 INTRA-LIGAND FREE ENERGY PREDICTED BY IDOCK:   -0.52 KCAL/MOL
REMARK 927      BINDING AFFINITY PREDICTED BY RF-SCORE:    0.00 PKD
ROOT
HETATM    1  C   UNL     1      -8.408   8.641  71.216  1.00  0.00    -0.168 C  
HETATM    2  O   UNL     1      -9.645   7.927  71.188  1.00  0.00    -0.157 OA 
ENDROOT
BRANCH   2   3
HETATM    3  C   UNL     1     -10.754   8.723  71.303  1.00  0.00    -0.269 A  
HETATM    4  C   UNL     1     -11.794   8.235  72.095  1.00  0.00    -0.369 A  
HETATM    5  O   UNL     1     -11.682   7.018  72.709  1.00  0.00    -0.498 OA 
HETATM    6  C   UNL     1     -12.980   8.947  72.253  1.00  0.00    -0.479 A  
HETATM    7  C   UNL     1     -13.130  10.171  71.601  1.00  0.00    -0.550 A  
HETATM    8  H   UNL     1     -12.390   6.686  73.248  1.00  0.00     0.000 HD 
HETATM    9  C   UNL     1     -12.093  10.694  70.818  1.00  0.00    -0.474 A  
HETATM   10  C   UNL     1     -10.894   9.971  70.695  1.00  0.00    -0.367 A  
BRANCH   9  11
HETATM   11  C   UNL     1     -12.261  11.970  70.037  1.00  0.00    -0.206 C  
BRANCH  11  12
HETATM   12  N   UNL     1     -11.696  13.095  70.722  1.00  0.00    -0.396 N  
HETATM   13  C   UNL     1     -12.484  14.099  71.233  1.00  0.00    -0.370 C  
HETATM   14  H   UNL     1     -10.684  13.152  70.833  1.00  0.00     0.000 HD 
HETATM   15  O   UNL     1     -13.699  14.118  71.167  1.00  0.00    -0.279 OA 
BRANCH  13  16
HETATM   16  C   UNL     1     -11.667  15.223  71.811  1.00  0.00    -0.487 C  
BRANCH  16  17
HETATM   17  C   UNL     1     -11.293  16.287  70.788  1.00  0.00    -0.327 C  
BRANCH  17  18
HETATM   18  C   UNL     1     -10.064  15.919  69.945  1.00  0.00    -0.191 C  
BRANCH  18  19
HETATM   19  C   UNL     1      -9.746  16.862  68.777  1.00  0.00    -0.265 C  
BRANCH  19  20
HETATM   20  C   UNL     1     -10.113  18.302  69.018  1.00  0.00    -0.283 C  
HETATM   21  C   UNL     1      -9.344  19.373  68.754  1.00  0.00    -0.444 C  
HETATM   22  C   UNL     1      -8.024  19.367  68.024  1.00  0.00    -0.340 C  
HETATM   23  C   UNL     1      -6.845  19.253  68.988  1.00  0.00    -0.372 C  
HETATM   24  C   UNL     1      -7.898  20.623  67.165  1.00  0.00    -0.334 C  
ENDBRANCH  19  20
ENDBRANCH  18  19
ENDBRANCH  17  18
ENDBRANCH  16  17
ENDBRANCH  13  16
ENDBRANCH  11  12
ENDBRANCH   9  11
ENDBRANCH   2   3
TORSDOF 8
ENDMDL
MODEL      129
REMARK 921   NORMALIZED FREE ENERGY PREDICTED BY IDOCK:   -4.71 KCAL/MOL
REMARK 922        TOTAL FREE ENERGY PREDICTED BY IDOCK:   -8.13 KCAL/MOL
REMARK 923 INTER-LIGAND FREE ENERGY PREDICTED BY IDOCK:   -6.96 KCAL/MOL
REMARK 924 INTRA-LIGAND FREE ENERGY PREDICTED BY IDOCK:   -1.18 KCAL/MOL
REMARK 927      BINDING AFFINITY PREDICTED BY RF-SCORE:    0.00 PKD
ROOT
HETATM    1  C   UNL     1     -10.121  16.088  65.701  1.00  0.00    -0.354 C  
HETATM    2  O   UNL     1     -11.356  15.386  65.543  1.00  0.00    -0.277 OA 
ENDROOT
BRANCH   2   3
HETATM    3  C   UNL     1     -11.330  14.097  66.006  1.00  0.00    -0.330 A  
HETATM    4  C   UNL     1     -11.802  13.889  67.303  1.00  0.00    -0.407 A  
HETATM    5  O   UNL     1     -12.258  14.941  68.048  1.00  0.00    -0.567 OA 
HETATM    6  C   UNL     1     -11.789  12.625  67.885  1.00  0.00    -0.388 A  
HETATM    7  C   UNL     1     -11.289  11.546  67.156  1.00  0.00    -0.354 A  
HETATM    8  H   UNL     1     -12.579  14.800  68.931  1.00  0.00     0.000 HD 
HETATM    9  C   UNL     1     -10.830  11.723  65.844  1.00  0.00    -0.339 A  
HETATM   10  C   UNL     1     -10.877  13.004  65.267  1.00  0.00    -0.311 A  
BRANCH   9  11
HETATM   11  C   UNL     1     -10.208  10.594  65.068  1.00  0.00    -0.310 C  
BRANCH  11  12
HETATM   12  N   UNL     1     -10.196   9.372  65.816  1.00  0.00    -0.289 N  
HETATM   13  C   UNL     1      -9.024   8.817  66.274  1.00  0.00    -0.173 C  
HETATM   14  H   UNL     1     -11.079   8.902  66.015  1.00  0.00     0.000 HD 
HETATM   15  O   UNL     1      -7.922   9.305  66.104  1.00  0.00    -0.105 OA 
BRANCH  13  16
HETATM   16  C   UNL     1      -9.247   7.485  66.938  1.00  0.00    -0.181 C  
BRANCH  16  17
HETATM   17  C   UNL     1     -10.194   7.555  68.129  1.00  0.00    -0.228 C  
BRANCH  17  18
HETATM   18  C   UNL     1      -9.699   8.481  69.250  1.00  0.00    -0.173 C  
BRANCH  18  19
HETATM   19  C   UNL     1     -10.775   9.326  69.944  1.00  0.00    -0.253 C  
BRANCH  19  20
HETATM   20  C   UNL     1     -10.764   9.242  71.447  1.00  0.00    -0.432 C  
HETATM   21  C   UNL     1     -11.321   8.272  72.193  1.00  0.00    -0.419 C  
HETATM   22  C   UNL     1     -11.936   6.993  71.680  1.00  0.00    -0.365 C  
HETATM   23  C   UNL     1     -13.440   7.139  71.457  1.00  0.00    -0.411 C  
HETATM   24  C   UNL     1     -11.643   5.849  72.649  1.00  0.00    -0.289 C  
ENDBRANCH  19  20
ENDBRANCH  18  19
ENDBRANCH  17  18
ENDBRANCH  16  17
ENDBRANCH  13  16
ENDBRANCH  11  12
ENDBRANCH   9  11
ENDBRANCH   2   3
TORSDOF 8
ENDMDL
MODEL      130
REMARK 921   NORMALIZED FREE ENERGY PREDICTED BY IDOCK:   -4.71 KCAL/MOL
REMARK 922        TOTAL FREE ENERGY PREDICTED BY IDOCK:   -8.13 KCAL/MOL
REMARK 923 INTER-LIGAND FREE ENERGY PREDICTED BY IDOCK:   -7.14 KCAL/MOL
REMARK 924 INTRA-LIGAND FREE ENERGY PREDICTED BY IDOCK:   -0.99 KCAL/MOL
REMARK 927      BINDING AFFINITY PREDICTED BY RF-SCORE:    0.00 PKD
ROOT
HETATM    1  C   UNL     1     -12.200  12.747  63.389  1.00  0.00    -0.504 C  
HETATM    2  O   UNL     1     -11.490  11.507  63.375  1.00  0.00    -0.372 OA 
ENDROOT
BRANCH   2   3
HETATM    3  C   UNL     1     -10.448  11.449  64.263  1.00  0.00    -0.342 A  
HETATM    4  C   UNL     1      -9.554  10.389  64.109  1.00  0.00    -0.322 A  
HETATM    5  O   UNL     1      -9.738   9.469  63.114  1.00  0.00    -0.440 OA 
HETATM    6  C   UNL     1      -8.479  10.214  64.977  1.00  0.00    -0.169 A  
HETATM    7  C   UNL     1      -8.299  11.117  66.025  1.00  0.00    -0.115 A  
HETATM    8  H   UNL     1      -9.130   8.748  63.009  1.00  0.00     0.000 HD 
HETATM    9  C   UNL     1      -9.168  12.203  66.188  1.00  0.00    -0.155 A  
HETATM   10  C   UNL     1     -10.230  12.375  65.283  1.00  0.00    -0.306 A  
BRANCH   9  11
HETATM   11  C   UNL     1      -9.045  13.142  67.358  1.00  0.00    -0.208 C  
BRANCH  11  12
HETATM   12  N   UNL     1      -8.375  14.357  67.001  1.00  0.00    -0.336 N  
HETATM   13  C   UNL     1      -9.072  15.493  66.659  1.00  0.00    -0.279 C  
HETATM   14  H   UNL     1      -7.355  14.381  67.000  1.00  0.00     0.000 HD 
HETATM   15  O   UNL     1     -10.286  15.574  66.644  1.00  0.00    -0.272 OA 
BRANCH  13  16
HETATM   16  C   UNL     1      -8.161  16.608  66.220  1.00  0.00    -0.365 C  
BRANCH  16  17
HETATM   17  C   UNL     1      -6.984  16.833  67.160  1.00  0.00    -0.226 C  
BRANCH  17  18
HETATM   18  C   UNL     1      -6.052  17.967  66.710  1.00  0.00    -0.190 C  
BRANCH  18  19
HETATM   19  C   UNL     1      -6.707  19.085  65.887  1.00  0.00    -0.281 C  
BRANCH  19  20
HETATM   20  C   UNL     1      -7.086  20.306  66.683  1.00  0.00    -0.296 C  
HETATM   21  C   UNL     1      -8.295  20.569  67.209  1.00  0.00    -0.355 C  
HETATM   22  C   UNL     1      -9.477  19.631  67.244  1.00  0.00    -0.446 C  
HETATM   23  C   UNL     1     -10.394  19.832  66.040  1.00  0.00    -0.612 C  
HETATM   24  C   UNL     1     -10.250  19.815  68.548  1.00  0.00    -0.547 C  
ENDBRANCH  19  20
ENDBRANCH  18  19
ENDBRANCH  17  18
ENDBRANCH  16  17
ENDBRANCH  13  16
ENDBRANCH  11  12
ENDBRANCH   9  11
ENDBRANCH   2   3
TORSDOF 8
ENDMDL
MODEL      131
REMARK 921   NORMALIZED FREE ENERGY PREDICTED BY IDOCK:   -4.71 KCAL/MOL
REMARK 922        TOTAL FREE ENERGY PREDICTED BY IDOCK:   -8.12 KCAL/MOL
REMARK 923 INTER-LIGAND FREE ENERGY PREDICTED BY IDOCK:   -6.92 KCAL/MOL
REMARK 924 INTRA-LIGAND FREE ENERGY PREDICTED BY IDOCK:   -1.20 KCAL/MOL
REMARK 927      BINDING AFFINITY PREDICTED BY RF-SCORE:    0.00 PKD
ROOT
HETATM    1  C   UNL     1      -6.831  19.498  69.394  1.00  0.00    -0.330 C  
HETATM    2  O   UNL     1      -7.745  19.913  68.377  1.00  0.00    -0.311 OA 
ENDROOT
BRANCH   2   3
HETATM    3  C   UNL     1      -8.600  18.928  67.957  1.00  0.00    -0.299 A  
HETATM    4  C   UNL     1      -9.934  19.050  68.347  1.00  0.00    -0.408 A  
HETATM    5  O   UNL     1     -10.336  20.109  69.112  1.00  0.00    -0.541 OA 
HETATM    6  C   UNL     1     -10.881  18.088  68.004  1.00  0.00    -0.194 A  
HETATM    7  C   UNL     1     -10.482  16.977  67.259  1.00  0.00    -0.301 A  
HETATM    8  H   UNL     1     -11.244  20.193  69.377  1.00  0.00     0.000 HD 
HETATM    9  C   UNL     1      -9.154  16.842  66.836  1.00  0.00    -0.248 A  
HETATM   10  C   UNL     1      -8.221  17.840  67.171  1.00  0.00    -0.233 A  
BRANCH   9  11
HETATM   11  C   UNL     1      -8.681  15.614  66.105  1.00  0.00    -0.206 C  
BRANCH  11  12
HETATM   12  N   UNL     1      -8.722  14.448  66.935  1.00  0.00    -0.320 N  
HETATM   13  C   UNL     1      -7.580  13.901  67.471  1.00  0.00    -0.176 C  
HETATM   14  H   UNL     1      -9.623  14.011  67.135  1.00  0.00     0.000 HD 
HETATM   15  O   UNL     1      -6.462  14.353  67.307  1.00  0.00    -0.295 OA 
BRANCH  13  16
HETATM   16  C   UNL     1      -7.856  12.624  68.217  1.00  0.00    -0.144 C  
BRANCH  16  17
HETATM   17  C   UNL     1      -8.941  11.771  67.574  1.00  0.00    -0.168 C  
BRANCH  17  18
HETATM   18  C   UNL     1     -10.178  11.581  68.465  1.00  0.00    -0.219 C  
BRANCH  18  19
HETATM   19  C   UNL     1     -11.530  11.578  67.740  1.00  0.00    -0.357 C  
BRANCH  19  20
HETATM   20  C   UNL     1     -11.831  12.837  66.971  1.00  0.00    -0.428 C  
HETATM   21  C   UNL     1     -11.809  12.975  65.633  1.00  0.00    -0.445 C  
HETATM   22  C   UNL     1     -11.631  11.868  64.623  1.00  0.00    -0.320 C  
HETATM   23  C   UNL     1     -10.165  11.689  64.233  1.00  0.00    -0.357 C  
HETATM   24  C   UNL     1     -12.487  12.145  63.390  1.00  0.00    -0.625 C  
ENDBRANCH  19  20
ENDBRANCH  18  19
ENDBRANCH  17  18
ENDBRANCH  16  17
ENDBRANCH  13  16
ENDBRANCH  11  12
ENDBRANCH   9  11
ENDBRANCH   2   3
TORSDOF 8
ENDMDL
MODEL      132
REMARK 921   NORMALIZED FREE ENERGY PREDICTED BY IDOCK:   -4.70 KCAL/MOL
REMARK 922        TOTAL FREE ENERGY PREDICTED BY IDOCK:   -8.11 KCAL/MOL
REMARK 923 INTER-LIGAND FREE ENERGY PREDICTED BY IDOCK:   -7.50 KCAL/MOL
REMARK 924 INTRA-LIGAND FREE ENERGY PREDICTED BY IDOCK:   -0.61 KCAL/MOL
REMARK 927      BINDING AFFINITY PREDICTED BY RF-SCORE:    0.00 PKD
ROOT
HETATM    1  C   UNL     1     -10.452   8.733  67.103  1.00  0.00    -0.283 C  
HETATM    2  O   UNL     1      -9.812   9.607  68.034  1.00  0.00    -0.144 OA 
ENDROOT
BRANCH   2   3
HETATM    3  C   UNL     1     -10.311   9.530  69.308  1.00  0.00    -0.208 A  
HETATM    4  C   UNL     1      -9.767   8.545  70.134  1.00  0.00    -0.170 A  
HETATM    5  O   UNL     1      -8.788   7.714  69.664  1.00  0.00    -0.139 OA 
HETATM    6  C   UNL     1     -10.223   8.357  71.436  1.00  0.00    -0.284 A  
HETATM    7  C   UNL     1     -11.251   9.167  71.919  1.00  0.00    -0.400 A  
HETATM    8  H   UNL     1      -8.417   7.044  70.226  1.00  0.00     0.000 HD 
HETATM    9  C   UNL     1     -11.799  10.177  71.118  1.00  0.00    -0.472 A  
HETATM   10  C   UNL     1     -11.303  10.368  69.817  1.00  0.00    -0.353 A  
BRANCH   9  11
HETATM   11  C   UNL     1     -12.964  11.009  71.586  1.00  0.00    -0.456 C  
BRANCH  11  12
HETATM   12  N   UNL     1     -12.871  12.364  71.131  1.00  0.00    -0.277 N  
HETATM   13  C   UNL     1     -13.431  13.403  71.837  1.00  0.00    -0.441 C  
HETATM   14  H   UNL     1     -12.376  12.564  70.262  1.00  0.00     0.000 HD 
HETATM   15  O   UNL     1     -14.027  13.273  72.890  1.00  0.00    -0.566 OA 
BRANCH  13  16
HETATM   16  C   UNL     1     -13.300  14.717  71.115  1.00  0.00    -0.433 C  
BRANCH  16  17
HETATM   17  C   UNL     1     -12.242  14.702  70.020  1.00  0.00    -0.385 C  
BRANCH  17  18
HETATM   18  C   UNL     1     -11.260  15.880  70.104  1.00  0.00    -0.368 C  
BRANCH  18  19
HETATM   19  C   UNL     1     -10.197  15.945  68.999  1.00  0.00    -0.227 C  
BRANCH  19  20
HETATM   20  C   UNL     1     -10.666  16.580  67.717  1.00  0.00    -0.329 C  
HETATM   21  C   UNL     1     -10.349  17.810  67.276  1.00  0.00    -0.364 C  
HETATM   22  C   UNL     1      -9.341  18.747  67.894  1.00  0.00    -0.331 C  
HETATM   23  C   UNL     1      -9.993  19.703  68.891  1.00  0.00    -0.524 C  
HETATM   24  C   UNL     1      -8.613  19.525  66.800  1.00  0.00    -0.350 C  
ENDBRANCH  19  20
ENDBRANCH  18  19
ENDBRANCH  17  18
ENDBRANCH  16  17
ENDBRANCH  13  16
ENDBRANCH  11  12
ENDBRANCH   9  11
ENDBRANCH   2   3
TORSDOF 8
ENDMDL
MODEL      133
REMARK 921   NORMALIZED FREE ENERGY PREDICTED BY IDOCK:   -4.69 KCAL/MOL
REMARK 922        TOTAL FREE ENERGY PREDICTED BY IDOCK:   -8.10 KCAL/MOL
REMARK 923 INTER-LIGAND FREE ENERGY PREDICTED BY IDOCK:   -7.18 KCAL/MOL
REMARK 924 INTRA-LIGAND FREE ENERGY PREDICTED BY IDOCK:   -0.93 KCAL/MOL
REMARK 927      BINDING AFFINITY PREDICTED BY RF-SCORE:    0.00 PKD
ROOT
HETATM    1  C   UNL     1     -12.345  14.152  63.959  1.00  0.00    -0.275 C  
HETATM    2  O   UNL     1     -11.578  13.065  63.438  1.00  0.00    -0.474 OA 
ENDROOT
BRANCH   2   3
HETATM    3  C   UNL     1     -10.774  12.453  64.363  1.00  0.00    -0.339 A  
HETATM    4  C   UNL     1     -10.192  11.244  63.983  1.00  0.00    -0.348 A  
HETATM    5  O   UNL     1     -10.433  10.722  62.742  1.00  0.00    -0.763 OA 
HETATM    6  C   UNL     1      -9.385  10.521  64.857  1.00  0.00    -0.278 A  
HETATM    7  C   UNL     1      -9.161  11.016  66.142  1.00  0.00    -0.209 A  
HETATM    8  H   UNL     1     -10.036   9.899  62.483  1.00  0.00     0.000 HD 
HETATM    9  C   UNL     1      -9.716  12.239  66.542  1.00  0.00    -0.242 A  
HETATM   10  C   UNL     1     -10.505  12.965  65.633  1.00  0.00    -0.292 A  
BRANCH   9  11
HETATM   11  C   UNL     1      -9.559  12.753  67.948  1.00  0.00    -0.211 C  
BRANCH  11  12
HETATM   12  N   UNL     1      -9.949  14.127  68.061  1.00  0.00    -0.221 N  
HETATM   13  C   UNL     1     -11.025  14.512  68.826  1.00  0.00    -0.250 C  
HETATM   14  H   UNL     1      -9.414  14.838  67.563  1.00  0.00     0.000 HD 
HETATM   15  O   UNL     1     -11.717  13.746  69.470  1.00  0.00    -0.284 OA 
BRANCH  13  16
HETATM   16  C   UNL     1     -11.308  15.986  68.709  1.00  0.00    -0.380 C  
BRANCH  16  17
HETATM   17  C   UNL     1     -10.558  16.656  67.566  1.00  0.00    -0.311 C  
BRANCH  17  18
HETATM   18  C   UNL     1     -10.777  18.175  67.499  1.00  0.00    -0.365 C  
BRANCH  18  19
HETATM   19  C   UNL     1      -9.964  19.012  68.496  1.00  0.00    -0.486 C  
BRANCH  19  20
HETATM   20  C   UNL     1      -9.211  20.161  67.879  1.00  0.00    -0.380 C  
HETATM   21  C   UNL     1      -8.010  20.092  67.277  1.00  0.00    -0.363 C  
HETATM   22  C   UNL     1      -7.240  18.834  66.960  1.00  0.00    -0.218 C  
HETATM   23  C   UNL     1      -6.261  18.474  68.075  1.00  0.00    -0.193 C  
HETATM   24  C   UNL     1      -6.508  18.993  65.629  1.00  0.00    -0.296 C  
ENDBRANCH  19  20
ENDBRANCH  18  19
ENDBRANCH  17  18
ENDBRANCH  16  17
ENDBRANCH  13  16
ENDBRANCH  11  12
ENDBRANCH   9  11
ENDBRANCH   2   3
TORSDOF 8
ENDMDL
MODEL      134
REMARK 921   NORMALIZED FREE ENERGY PREDICTED BY IDOCK:   -4.69 KCAL/MOL
REMARK 922        TOTAL FREE ENERGY PREDICTED BY IDOCK:   -8.09 KCAL/MOL
REMARK 923 INTER-LIGAND FREE ENERGY PREDICTED BY IDOCK:   -7.35 KCAL/MOL
REMARK 924 INTRA-LIGAND FREE ENERGY PREDICTED BY IDOCK:   -0.74 KCAL/MOL
REMARK 927      BINDING AFFINITY PREDICTED BY RF-SCORE:    0.00 PKD
ROOT
HETATM    1  C   UNL     1     -10.215  18.369  66.397  1.00  0.00    -0.410 C  
HETATM    2  O   UNL     1     -10.092  17.354  65.399  1.00  0.00    -0.562 OA 
ENDROOT
BRANCH   2   3
HETATM    3  C   UNL     1     -10.707  16.173  65.723  1.00  0.00    -0.280 A  
HETATM    4  C   UNL     1     -11.449  15.558  64.714  1.00  0.00    -0.313 A  
HETATM    5  O   UNL     1     -11.540  16.132  63.476  1.00  0.00    -1.126 OA 
HETATM    6  C   UNL     1     -12.142  14.372  64.944  1.00  0.00    -0.442 A  
HETATM    7  C   UNL     1     -12.096  13.794  66.213  1.00  0.00    -0.484 A  
HETATM    8  H   UNL     1     -12.044  15.713  62.789  1.00  0.00     0.000 HD 
HETATM    9  C   UNL     1     -11.340  14.379  67.236  1.00  0.00    -0.357 A  
HETATM   10  C   UNL     1     -10.626  15.561  66.974  1.00  0.00    -0.311 A  
BRANCH   9  11
HETATM   11  C   UNL     1     -11.342  13.821  68.634  1.00  0.00    -0.287 C  
BRANCH  11  12
HETATM   12  N   UNL     1     -10.383  12.768  68.792  1.00  0.00    -0.398 N  
HETATM   13  C   UNL     1     -10.730  11.447  68.639  1.00  0.00    -0.206 C  
HETATM   14  H   UNL     1      -9.418  13.005  69.023  1.00  0.00     0.000 HD 
HETATM   15  O   UNL     1     -11.848  11.060  68.349  1.00  0.00    -0.503 OA 
BRANCH  13  16
HETATM   16  C   UNL     1      -9.589  10.519  68.956  1.00  0.00    -0.213 C  
BRANCH  16  17
HETATM   17  C   UNL     1      -8.878   9.989  67.718  1.00  0.00    -0.125 C  
BRANCH  17  18
HETATM   18  C   UNL     1      -8.897   8.457  67.611  1.00  0.00    -0.138 C  
BRANCH  18  19
HETATM   19  C   UNL     1     -10.286   7.804  67.612  1.00  0.00    -0.282 C  
BRANCH  19  20
HETATM   20  C   UNL     1     -10.537   6.871  68.766  1.00  0.00    -0.247 C  
HETATM   21  C   UNL     1     -10.076   5.613  68.887  1.00  0.00    -0.254 C  
HETATM   22  C   UNL     1      -9.091   4.931  67.970  1.00  0.00    -0.131 C  
HETATM   23  C   UNL     1      -9.795   4.146  66.866  1.00  0.00    -0.197 C  
HETATM   24  C   UNL     1      -8.172   4.018  68.779  1.00  0.00    -0.082 C  
ENDBRANCH  19  20
ENDBRANCH  18  19
ENDBRANCH  17  18
ENDBRANCH  16  17
ENDBRANCH  13  16
ENDBRANCH  11  12
ENDBRANCH   9  11
ENDBRANCH   2   3
TORSDOF 8
ENDMDL
MODEL      135
REMARK 921   NORMALIZED FREE ENERGY PREDICTED BY IDOCK:   -4.67 KCAL/MOL
REMARK 922        TOTAL FREE ENERGY PREDICTED BY IDOCK:   -8.07 KCAL/MOL
REMARK 923 INTER-LIGAND FREE ENERGY PREDICTED BY IDOCK:   -7.20 KCAL/MOL
REMARK 924 INTRA-LIGAND FREE ENERGY PREDICTED BY IDOCK:   -0.88 KCAL/MOL
REMARK 927      BINDING AFFINITY PREDICTED BY RF-SCORE:    0.00 PKD
ROOT
HETATM    1  C   UNL     1     -11.373  11.254  67.273  1.00  0.00    -0.255 C  
HETATM    2  O   UNL     1     -11.814  10.623  68.476  1.00  0.00    -0.406 OA 
ENDROOT
BRANCH   2   3
HETATM    3  C   UNL     1     -12.161  11.498  69.472  1.00  0.00    -0.284 A  
HETATM    4  C   UNL     1     -12.693  10.942  70.635  1.00  0.00    -0.309 A  
HETATM    5  O   UNL     1     -12.850   9.588  70.744  1.00  0.00    -0.516 OA 
HETATM    6  C   UNL     1     -13.110  11.741  71.697  1.00  0.00    -0.443 A  
HETATM    7  C   UNL     1     -12.997  13.128  71.588  1.00  0.00    -0.429 A  
HETATM    8  H   UNL     1     -13.212   9.209  71.537  1.00  0.00     0.000 HD 
HETATM    9  C   UNL     1     -12.446  13.710  70.440  1.00  0.00    -0.364 A  
HETATM   10  C   UNL     1     -12.006  12.882  69.393  1.00  0.00    -0.327 A  
BRANCH   9  11
HETATM   11  C   UNL     1     -12.390  15.204  70.263  1.00  0.00    -0.352 C  
BRANCH  11  12
HETATM   12  N   UNL     1     -12.200  15.575  68.892  1.00  0.00    -0.608 N  
HETATM   13  C   UNL     1     -11.083  16.261  68.478  1.00  0.00    -0.368 C  
HETATM   14  H   UNL     1     -12.911  15.323  68.206  1.00  0.00     0.000 HD 
HETATM   15  O   UNL     1     -10.172  16.595  69.213  1.00  0.00    -0.283 OA 
BRANCH  13  16
HETATM   16  C   UNL     1     -11.152  16.633  67.021  1.00  0.00     0.145 C  
BRANCH  16  17
HETATM   17  C   UNL     1      -9.866  17.254  66.494  1.00  0.00    -0.306 C  
BRANCH  17  18
HETATM   18  C   UNL     1      -8.771  16.223  66.186  1.00  0.00    -0.353 C  
BRANCH  18  19
HETATM   19  C   UNL     1      -7.421  16.452  66.880  1.00  0.00    -0.269 C  
BRANCH  19  20
HETATM   20  C   UNL     1      -6.701  17.702  66.449  1.00  0.00    -0.293 C  
HETATM   21  C   UNL     1      -6.609  18.847  67.149  1.00  0.00    -0.203 C  
HETATM   22  C   UNL     1      -7.072  19.067  68.568  1.00  0.00    -0.322 C  
HETATM   23  C   UNL     1      -8.497  19.613  68.619  1.00  0.00    -0.310 C  
HETATM   24  C   UNL     1      -6.108  20.005  69.291  1.00  0.00    -0.343 C  
ENDBRANCH  19  20
ENDBRANCH  18  19
ENDBRANCH  17  18
ENDBRANCH  16  17
ENDBRANCH  13  16
ENDBRANCH  11  12
ENDBRANCH   9  11
ENDBRANCH   2   3
TORSDOF 8
ENDMDL
MODEL      136
REMARK 921   NORMALIZED FREE ENERGY PREDICTED BY IDOCK:   -4.67 KCAL/MOL
REMARK 922        TOTAL FREE ENERGY PREDICTED BY IDOCK:   -8.07 KCAL/MOL
REMARK 923 INTER-LIGAND FREE ENERGY PREDICTED BY IDOCK:   -7.12 KCAL/MOL
REMARK 924 INTRA-LIGAND FREE ENERGY PREDICTED BY IDOCK:   -0.95 KCAL/MOL
REMARK 927      BINDING AFFINITY PREDICTED BY RF-SCORE:    0.00 PKD
ROOT
HETATM    1  C   UNL     1      -8.101   8.156  69.946  1.00  0.00    -0.115 C  
HETATM    2  O   UNL     1      -8.458   8.294  71.322  1.00  0.00    -0.114 OA 
ENDROOT
BRANCH   2   3
HETATM    3  C   UNL     1      -9.785   8.559  71.533  1.00  0.00    -0.234 A  
HETATM    4  C   UNL     1     -10.475   7.675  72.363  1.00  0.00    -0.248 A  
HETATM    5  O   UNL     1      -9.830   6.606  72.921  1.00  0.00    -0.160 OA 
HETATM    6  C   UNL     1     -11.835   7.830  72.618  1.00  0.00    -0.317 A  
HETATM    7  C   UNL     1     -12.521   8.891  72.023  1.00  0.00    -0.461 A  
HETATM    8  H   UNL     1     -10.299   6.005  73.487  1.00  0.00     0.000 HD 
HETATM    9  C   UNL     1     -11.847   9.805  71.204  1.00  0.00    -0.466 A  
HETATM   10  C   UNL     1     -10.468   9.644  70.983  1.00  0.00    -0.327 A  
BRANCH   9  11
HETATM   11  C   UNL     1     -12.579  10.906  70.485  1.00  0.00    -0.324 C  
BRANCH  11  12
HETATM   12  N   UNL     1     -11.683  11.905  69.982  1.00  0.00    -0.462 N  
HETATM   13  C   UNL     1     -11.510  12.107  68.633  1.00  0.00    -0.296 C  
HETATM   14  H   UNL     1     -11.161  12.482  70.642  1.00  0.00     0.000 HD 
HETATM   15  O   UNL     1     -12.096  11.485  67.766  1.00  0.00    -0.626 OA 
BRANCH  13  16
HETATM   16  C   UNL     1     -10.445  13.130  68.344  1.00  0.00    -0.261 C  
BRANCH  16  17
HETATM   17  C   UNL     1     -10.863  14.160  67.303  1.00  0.00    -0.288 C  
BRANCH  17  18
HETATM   18  C   UNL     1      -9.894  14.256  66.115  1.00  0.00    -0.335 C  
BRANCH  18  19
HETATM   19  C   UNL     1     -10.498  13.970  64.734  1.00  0.00    -0.445 C  
BRANCH  19  20
HETATM   20  C   UNL     1     -11.368  12.743  64.673  1.00  0.00    -0.362 C  
HETATM   21  C   UNL     1     -10.982  11.513  64.290  1.00  0.00    -0.406 C  
HETATM   22  C   UNL     1      -9.570  11.073  63.989  1.00  0.00    -0.310 C  
HETATM   23  C   UNL     1      -9.240  11.209  62.504  1.00  0.00    -0.317 C  
HETATM   24  C   UNL     1      -9.361   9.635  64.458  1.00  0.00    -0.247 C  
ENDBRANCH  19  20
ENDBRANCH  18  19
ENDBRANCH  17  18
ENDBRANCH  16  17
ENDBRANCH  13  16
ENDBRANCH  11  12
ENDBRANCH   9  11
ENDBRANCH   2   3
TORSDOF 8
ENDMDL
MODEL      137
REMARK 921   NORMALIZED FREE ENERGY PREDICTED BY IDOCK:   -4.67 KCAL/MOL
REMARK 922        TOTAL FREE ENERGY PREDICTED BY IDOCK:   -8.06 KCAL/MOL
REMARK 923 INTER-LIGAND FREE ENERGY PREDICTED BY IDOCK:   -6.83 KCAL/MOL
REMARK 924 INTRA-LIGAND FREE ENERGY PREDICTED BY IDOCK:   -1.23 KCAL/MOL
REMARK 927      BINDING AFFINITY PREDICTED BY RF-SCORE:    0.00 PKD
ROOT
HETATM    1  C   UNL     1     -14.292   8.706  72.210  1.00  0.00    -0.396 C  
HETATM    2  O   UNL     1     -13.020   9.256  72.559  1.00  0.00    -0.393 OA 
ENDROOT
BRANCH   2   3
HETATM    3  C   UNL     1     -12.380   9.888  71.526  1.00  0.00    -0.412 A  
HETATM    4  C   UNL     1     -11.424   9.143  70.834  1.00  0.00    -0.296 A  
HETATM    5  O   UNL     1     -11.161   7.851  71.195  1.00  0.00    -0.247 OA 
HETATM    6  C   UNL     1     -10.690   9.698  69.788  1.00  0.00    -0.269 A  
HETATM    7  C   UNL     1     -10.915  11.028  69.432  1.00  0.00    -0.301 A  
HETATM    8  H   UNL     1     -10.510   7.344  70.724  1.00  0.00     0.000 HD 
HETATM    9  C   UNL     1     -11.884  11.790  70.095  1.00  0.00    -0.408 A  
HETATM   10  C   UNL     1     -12.632  11.201  71.129  1.00  0.00    -0.513 A  
BRANCH   9  11
HETATM   11  C   UNL     1     -12.086  13.250  69.787  1.00  0.00    -0.290 C  
BRANCH  11  12
HETATM   12  N   UNL     1     -10.842  13.936  69.607  1.00  0.00    -0.453 N  
HETATM   13  C   UNL     1     -10.706  14.959  68.698  1.00  0.00    -0.250 C  
HETATM   14  H   UNL     1     -10.036  13.659  70.167  1.00  0.00     0.000 HD 
HETATM   15  O   UNL     1     -11.608  15.375  67.994  1.00  0.00    -0.344 OA 
BRANCH  13  16
HETATM   16  C   UNL     1      -9.288  15.455  68.607  1.00  0.00    -0.202 C  
BRANCH  16  17
HETATM   17  C   UNL     1      -8.257  14.335  68.583  1.00  0.00    -0.139 C  
BRANCH  17  18
HETATM   18  C   UNL     1      -8.290  13.501  67.294  1.00  0.00    -0.188 C  
BRANCH  18  19
HETATM   19  C   UNL     1      -8.367  11.980  67.482  1.00  0.00    -0.166 C  
BRANCH  19  20
HETATM   20  C   UNL     1      -8.667  11.209  66.224  1.00  0.00    -0.183 C  
HETATM   21  C   UNL     1      -9.684  11.437  65.375  1.00  0.00    -0.265 C  
HETATM   22  C   UNL     1     -10.642  12.601  65.421  1.00  0.00    -0.307 C  
HETATM   23  C   UNL     1     -11.902  12.266  66.217  1.00  0.00    -0.387 C  
HETATM   24  C   UNL     1     -11.001  13.037  64.002  1.00  0.00    -0.422 C  
ENDBRANCH  19  20
ENDBRANCH  18  19
ENDBRANCH  17  18
ENDBRANCH  16  17
ENDBRANCH  13  16
ENDBRANCH  11  12
ENDBRANCH   9  11
ENDBRANCH   2   3
TORSDOF 8
ENDMDL
MODEL      138
REMARK 921   NORMALIZED FREE ENERGY PREDICTED BY IDOCK:   -4.65 KCAL/MOL
REMARK 922        TOTAL FREE ENERGY PREDICTED BY IDOCK:   -8.04 KCAL/MOL
REMARK 923 INTER-LIGAND FREE ENERGY PREDICTED BY IDOCK:   -6.64 KCAL/MOL
REMARK 924 INTRA-LIGAND FREE ENERGY PREDICTED BY IDOCK:   -1.40 KCAL/MOL
REMARK 927      BINDING AFFINITY PREDICTED BY RF-SCORE:    0.00 PKD
ROOT
HETATM    1  C   UNL     1      -8.871   8.099  71.378  1.00  0.00    -0.149 C  
HETATM    2  O   UNL     1     -10.145   7.546  71.714  1.00  0.00    -0.175 OA 
ENDROOT
BRANCH   2   3
HETATM    3  C   UNL     1     -11.195   8.406  71.528  1.00  0.00    -0.267 A  
HETATM    4  C   UNL     1     -12.468   7.909  71.812  1.00  0.00    -0.323 A  
HETATM    5  O   UNL     1     -12.625   6.623  72.250  1.00  0.00    -0.538 OA 
HETATM    6  C   UNL     1     -13.608   8.686  71.625  1.00  0.00    -0.408 A  
HETATM    7  C   UNL     1     -13.472   9.986  71.139  1.00  0.00    -0.299 A  
HETATM    8  H   UNL     1     -13.491   6.285  72.444  1.00  0.00     0.000 HD 
HETATM    9  C   UNL     1     -12.204  10.517  70.867  1.00  0.00    -0.490 A  
HETATM   10  C   UNL     1     -11.065   9.723  71.089  1.00  0.00    -0.414 A  
BRANCH   9  11
HETATM   11  C   UNL     1     -12.036  11.885  70.263  1.00  0.00    -0.330 C  
BRANCH  11  12
HETATM   12  N   UNL     1     -11.027  11.901  69.245  1.00  0.00    -0.397 N  
HETATM   13  C   UNL     1     -11.176  12.634  68.091  1.00  0.00    -0.269 C  
HETATM   14  H   UNL     1     -10.177  11.354  69.380  1.00  0.00     0.000 HD 
HETATM   15  O   UNL     1     -12.144  13.330  67.842  1.00  0.00    -0.331 OA 
BRANCH  13  16
HETATM   16  C   UNL     1     -10.043  12.412  67.127  1.00  0.00    -0.221 C  
BRANCH  16  17
HETATM   17  C   UNL     1     -10.325  11.321  66.102  1.00  0.00    -0.300 C  
BRANCH  17  18
HETATM   18  C   UNL     1      -9.122  10.403  65.840  1.00  0.00    -0.192 C  
BRANCH  18  19
HETATM   19  C   UNL     1      -9.224   8.985  66.417  1.00  0.00    -0.239 C  
BRANCH  19  20
HETATM   20  C   UNL     1     -10.338   8.794  67.413  1.00  0.00    -0.349 C  
HETATM   21  C   UNL     1     -10.758   7.621  67.920  1.00  0.00    -0.176 C  
HETATM   22  C   UNL     1     -10.106   6.276  67.718  1.00  0.00    -0.174 C  
HETATM   23  C   UNL     1     -10.710   5.527  66.532  1.00  0.00    -0.309 C  
HETATM   24  C   UNL     1     -10.219   5.445  68.994  1.00  0.00    -0.291 C  
ENDBRANCH  19  20
ENDBRANCH  18  19
ENDBRANCH  17  18
ENDBRANCH  16  17
ENDBRANCH  13  16
ENDBRANCH  11  12
ENDBRANCH   9  11
ENDBRANCH   2   3
TORSDOF 8
ENDMDL
MODEL      139
REMARK 921   NORMALIZED FREE ENERGY PREDICTED BY IDOCK:   -4.65 KCAL/MOL
REMARK 922        TOTAL FREE ENERGY PREDICTED BY IDOCK:   -8.04 KCAL/MOL
REMARK 923 INTER-LIGAND FREE ENERGY PREDICTED BY IDOCK:   -7.15 KCAL/MOL
REMARK 924 INTRA-LIGAND FREE ENERGY PREDICTED BY IDOCK:   -0.89 KCAL/MOL
REMARK 927      BINDING AFFINITY PREDICTED BY RF-SCORE:    0.00 PKD
ROOT
HETATM    1  C   UNL     1     -14.235   7.523  71.625  1.00  0.00    -0.458 C  
HETATM    2  O   UNL     1     -12.870   7.656  72.026  1.00  0.00    -0.287 OA 
ENDROOT
BRANCH   2   3
HETATM    3  C   UNL     1     -12.005   6.841  71.345  1.00  0.00    -0.355 A  
HETATM    4  C   UNL     1     -11.231   5.970  72.114  1.00  0.00    -0.291 A  
HETATM    5  O   UNL     1     -11.352   5.958  73.476  1.00  0.00    -0.442 OA 
HETATM    6  C   UNL     1     -10.295   5.122  71.528  1.00  0.00    -0.278 A  
HETATM    7  C   UNL     1     -10.127   5.150  70.143  1.00  0.00    -0.342 A  
HETATM    8  H   UNL     1     -10.826   5.365  73.999  1.00  0.00     0.000 HD 
HETATM    9  C   UNL     1     -10.907   5.998  69.347  1.00  0.00    -0.433 A  
HETATM   10  C   UNL     1     -11.864   6.826  69.958  1.00  0.00    -0.265 A  
BRANCH   9  11
HETATM   11  C   UNL     1     -10.686   6.108  67.861  1.00  0.00    -0.296 C  
BRANCH  11  12
HETATM   12  N   UNL     1     -11.033   7.406  67.363  1.00  0.00    -0.555 N  
HETATM   13  C   UNL     1     -10.073   8.335  67.036  1.00  0.00    -0.283 C  
HETATM   14  H   UNL     1     -12.018   7.647  67.249  1.00  0.00     0.000 HD 
HETATM   15  O   UNL     1      -8.875   8.141  67.121  1.00  0.00    -0.127 OA 
BRANCH  13  16
HETATM   16  C   UNL     1     -10.674   9.656  66.639  1.00  0.00    -0.102 C  
BRANCH  16  17
HETATM   17  C   UNL     1      -9.859  10.855  67.106  1.00  0.00    -0.213 C  
BRANCH  17  18
HETATM   18  C   UNL     1     -10.238  11.339  68.513  1.00  0.00    -0.214 C  
BRANCH  18  19
HETATM   19  C   UNL     1     -10.707  12.797  68.616  1.00  0.00    -0.273 C  
BRANCH  19  20
HETATM   20  C   UNL     1     -11.833  13.158  67.683  1.00  0.00    -0.405 C  
HETATM   21  C   UNL     1     -11.837  14.169  66.796  1.00  0.00    -0.449 C  
HETATM   22  C   UNL     1     -10.666  15.052  66.443  1.00  0.00    -0.322 C  
HETATM   23  C   UNL     1     -10.638  16.321  67.292  1.00  0.00    -0.298 C  
HETATM   24  C   UNL     1     -10.705  15.399  64.956  1.00  0.00    -0.460 C  
ENDBRANCH  19  20
ENDBRANCH  18  19
ENDBRANCH  17  18
ENDBRANCH  16  17
ENDBRANCH  13  16
ENDBRANCH  11  12
ENDBRANCH   9  11
ENDBRANCH   2   3
TORSDOF 8
ENDMDL
MODEL      140
REMARK 921   NORMALIZED FREE ENERGY PREDICTED BY IDOCK:   -4.65 KCAL/MOL
REMARK 922        TOTAL FREE ENERGY PREDICTED BY IDOCK:   -8.04 KCAL/MOL
REMARK 923 INTER-LIGAND FREE ENERGY PREDICTED BY IDOCK:   -6.97 KCAL/MOL
REMARK 924 INTRA-LIGAND FREE ENERGY PREDICTED BY IDOCK:   -1.07 KCAL/MOL
REMARK 927      BINDING AFFINITY PREDICTED BY RF-SCORE:    0.00 PKD
ROOT
HETATM    1  C   UNL     1      -6.289  18.360  69.282  1.00  0.00    -0.260 C  
HETATM    2  O   UNL     1      -6.969  19.483  68.717  1.00  0.00    -0.306 OA 
ENDROOT
BRANCH   2   3
HETATM    3  C   UNL     1      -8.120  19.161  68.047  1.00  0.00    -0.298 A  
HETATM    4  C   UNL     1      -8.655  20.144  67.215  1.00  0.00    -0.343 A  
HETATM    5  O   UNL     1      -8.038  21.359  67.097  1.00  0.00    -0.655 OA 
HETATM    6  C   UNL     1      -9.840  19.936  66.514  1.00  0.00    -0.567 A  
HETATM    7  C   UNL     1     -10.507  18.718  66.654  1.00  0.00    -0.483 A  
HETATM    8  H   UNL     1      -8.402  22.028  66.530  1.00  0.00     0.000 HD 
HETATM    9  C   UNL     1      -9.979  17.706  67.466  1.00  0.00    -0.322 A  
HETATM   10  C   UNL     1      -8.768  17.929  68.142  1.00  0.00    -0.268 A  
BRANCH   9  11
HETATM   11  C   UNL     1     -10.721  16.417  67.700  1.00  0.00    -0.312 C  
BRANCH  11  12
HETATM   12  N   UNL     1      -9.838  15.350  68.068  1.00  0.00    -0.215 N  
HETATM   13  C   UNL     1      -9.613  14.279  67.235  1.00  0.00    -0.232 C  
HETATM   14  H   UNL     1      -9.363  15.386  68.970  1.00  0.00     0.000 HD 
HETATM   15  O   UNL     1     -10.117  14.148  66.135  1.00  0.00    -0.291 OA 
BRANCH  13  16
HETATM   16  C   UNL     1      -8.737  13.236  67.875  1.00  0.00    -0.192 C  
BRANCH  16  17
HETATM   17  C   UNL     1      -8.746  11.904  67.138  1.00  0.00    -0.176 C  
BRANCH  17  18
HETATM   18  C   UNL     1      -8.779  10.687  68.075  1.00  0.00    -0.126 C  
BRANCH  18  19
HETATM   19  C   UNL     1     -10.170  10.114  68.378  1.00  0.00    -0.192 C  
BRANCH  19  20
HETATM   20  C   UNL     1     -11.313  10.918  67.818  1.00  0.00    -0.366 C  
HETATM   21  C   UNL     1     -12.057  11.816  68.489  1.00  0.00    -0.134 C  
HETATM   22  C   UNL     1     -11.807  12.314  69.891  1.00  0.00    -0.383 C  
HETATM   23  C   UNL     1     -12.572  11.495  70.928  1.00  0.00    -0.438 C  
HETATM   24  C   UNL     1     -12.176  13.792  69.992  1.00  0.00    -0.407 C  
ENDBRANCH  19  20
ENDBRANCH  18  19
ENDBRANCH  17  18
ENDBRANCH  16  17
ENDBRANCH  13  16
ENDBRANCH  11  12
ENDBRANCH   9  11
ENDBRANCH   2   3
TORSDOF 8
ENDMDL
MODEL      141
REMARK 921   NORMALIZED FREE ENERGY PREDICTED BY IDOCK:   -4.65 KCAL/MOL
REMARK 922        TOTAL FREE ENERGY PREDICTED BY IDOCK:   -8.04 KCAL/MOL
REMARK 923 INTER-LIGAND FREE ENERGY PREDICTED BY IDOCK:   -7.20 KCAL/MOL
REMARK 924 INTRA-LIGAND FREE ENERGY PREDICTED BY IDOCK:   -0.84 KCAL/MOL
REMARK 927      BINDING AFFINITY PREDICTED BY RF-SCORE:    0.00 PKD
ROOT
HETATM    1  C   UNL     1     -10.624   8.191  67.147  1.00  0.00    -0.285 C  
HETATM    2  O   UNL     1     -10.836   6.785  67.286  1.00  0.00    -0.306 OA 
ENDROOT
BRANCH   2   3
HETATM    3  C   UNL     1     -10.783   6.336  68.579  1.00  0.00    -0.292 A  
HETATM    4  C   UNL     1     -10.044   5.175  68.808  1.00  0.00    -0.161 A  
HETATM    5  O   UNL     1      -9.418   4.540  67.772  1.00  0.00    -0.138 OA 
HETATM    6  C   UNL     1      -9.952   4.613  70.079  1.00  0.00    -0.302 A  
HETATM    7  C   UNL     1     -10.618   5.223  71.142  1.00  0.00    -0.243 A  
HETATM    8  H   UNL     1      -8.914   3.750  67.928  1.00  0.00     0.000 HD 
HETATM    9  C   UNL     1     -11.349   6.401  70.943  1.00  0.00    -0.398 A  
HETATM   10  C   UNL     1     -11.405   6.966  69.657  1.00  0.00    -0.254 A  
BRANCH   9  11
HETATM   11  C   UNL     1     -12.145   7.032  72.054  1.00  0.00    -0.294 C  
BRANCH  11  12
HETATM   12  N   UNL     1     -12.151   8.462  71.964  1.00  0.00    -0.332 N  
HETATM   13  C   UNL     1     -13.291   9.195  72.198  1.00  0.00    -0.463 C  
HETATM   14  H   UNL     1     -11.289   8.948  71.719  1.00  0.00     0.000 HD 
HETATM   15  O   UNL     1     -14.364   8.713  72.511  1.00  0.00    -0.523 OA 
BRANCH  13  16
HETATM   16  C   UNL     1     -13.085  10.663  71.941  1.00  0.00    -0.563 C  
BRANCH  16  17
HETATM   17  C   UNL     1     -12.819  10.989  70.477  1.00  0.00    -0.255 C  
BRANCH  17  18
HETATM   18  C   UNL     1     -11.816  12.135  70.279  1.00  0.00    -0.339 C  
BRANCH  18  19
HETATM   19  C   UNL     1     -11.076  12.150  68.935  1.00  0.00    -0.292 C  
BRANCH  19  20
HETATM   20  C   UNL     1     -11.807  12.860  67.827  1.00  0.00    -0.391 C  
HETATM   21  C   UNL     1     -11.789  14.183  67.582  1.00  0.00    -0.427 C  
HETATM   22  C   UNL     1     -10.919  15.207  68.268  1.00  0.00    -0.276 C  
HETATM   23  C   UNL     1     -11.624  15.838  69.467  1.00  0.00    -0.368 C  
HETATM   24  C   UNL     1     -10.490  16.279  67.269  1.00  0.00    -0.300 C  
ENDBRANCH  19  20
ENDBRANCH  18  19
ENDBRANCH  17  18
ENDBRANCH  16  17
ENDBRANCH  13  16
ENDBRANCH  11  12
ENDBRANCH   9  11
ENDBRANCH   2   3
TORSDOF 8
ENDMDL
MODEL      142
REMARK 921   NORMALIZED FREE ENERGY PREDICTED BY IDOCK:   -4.64 KCAL/MOL
REMARK 922        TOTAL FREE ENERGY PREDICTED BY IDOCK:   -8.02 KCAL/MOL
REMARK 923 INTER-LIGAND FREE ENERGY PREDICTED BY IDOCK:   -7.33 KCAL/MOL
REMARK 924 INTRA-LIGAND FREE ENERGY PREDICTED BY IDOCK:   -0.69 KCAL/MOL
REMARK 927      BINDING AFFINITY PREDICTED BY RF-SCORE:    0.00 PKD
ROOT
HETATM    1  C   UNL     1     -11.678  14.639  67.333  1.00  0.00    -0.390 C  
HETATM    2  O   UNL     1     -11.939  14.584  65.929  1.00  0.00    -0.366 OA 
ENDROOT
BRANCH   2   3
HETATM    3  C   UNL     1     -11.447  13.464  65.312  1.00  0.00    -0.298 A  
HETATM    4  C   UNL     1     -11.726  13.326  63.952  1.00  0.00    -0.431 A  
HETATM    5  O   UNL     1     -12.458  14.277  63.297  1.00  0.00    -1.133 OA 
HETATM    6  C   UNL     1     -11.303  12.210  63.234  1.00  0.00    -0.410 A  
HETATM    7  C   UNL     1     -10.591  11.207  63.894  1.00  0.00    -0.431 A  
HETATM    8  H   UNL     1     -12.647  14.184  62.371  1.00  0.00     0.000 HD 
HETATM    9  C   UNL     1     -10.279  11.332  65.254  1.00  0.00    -0.328 A  
HETATM   10  C   UNL     1     -10.692  12.480  65.952  1.00  0.00    -0.294 A  
BRANCH   9  11
HETATM   11  C   UNL     1      -9.586  10.228  66.008  1.00  0.00    -0.206 C  
BRANCH  11  12
HETATM   12  N   UNL     1     -10.188   9.994  67.287  1.00  0.00    -0.208 N  
HETATM   13  C   UNL     1      -9.615  10.455  68.449  1.00  0.00    -0.148 C  
HETATM   14  H   UNL     1     -11.063   9.473  67.337  1.00  0.00     0.000 HD 
HETATM   15  O   UNL     1      -8.583  11.098  68.497  1.00  0.00    -0.145 OA 
BRANCH  13  16
HETATM   16  C   UNL     1     -10.365   9.999  69.672  1.00  0.00    -0.274 C  
BRANCH  16  17
HETATM   17  C   UNL     1      -9.813   8.715  70.276  1.00  0.00    -0.195 C  
BRANCH  17  18
HETATM   18  C   UNL     1      -8.693   8.954  71.299  1.00  0.00    -0.279 C  
BRANCH  18  19
HETATM   19  C   UNL     1      -8.521   7.867  72.369  1.00  0.00    -0.189 C  
BRANCH  19  20
HETATM   20  C   UNL     1      -9.631   7.808  73.384  1.00  0.00    -0.352 C  
HETATM   21  C   UNL     1     -10.602   6.879  73.448  1.00  0.00    -0.372 C  
HETATM   22  C   UNL     1     -10.695   5.625  72.614  1.00  0.00    -0.285 C  
HETATM   23  C   UNL     1     -11.531   5.844  71.355  1.00  0.00    -0.191 C  
HETATM   24  C   UNL     1     -11.269   4.485  73.452  1.00  0.00    -0.404 C  
ENDBRANCH  19  20
ENDBRANCH  18  19
ENDBRANCH  17  18
ENDBRANCH  16  17
ENDBRANCH  13  16
ENDBRANCH  11  12
ENDBRANCH   9  11
ENDBRANCH   2   3
TORSDOF 8
ENDMDL
MODEL      143
REMARK 921   NORMALIZED FREE ENERGY PREDICTED BY IDOCK:   -4.63 KCAL/MOL
REMARK 922        TOTAL FREE ENERGY PREDICTED BY IDOCK:   -8.02 KCAL/MOL
REMARK 923 INTER-LIGAND FREE ENERGY PREDICTED BY IDOCK:   -7.31 KCAL/MOL
REMARK 924 INTRA-LIGAND FREE ENERGY PREDICTED BY IDOCK:   -0.70 KCAL/MOL
REMARK 927      BINDING AFFINITY PREDICTED BY RF-SCORE:    0.00 PKD
ROOT
HETATM    1  C   UNL     1      -9.043   9.963  63.859  1.00  0.00    -0.259 C  
HETATM    2  O   UNL     1     -10.246  10.565  63.378  1.00  0.00    -0.214 OA 
ENDROOT
BRANCH   2   3
HETATM    3  C   UNL     1     -10.655  11.655  64.101  1.00  0.00    -0.357 A  
HETATM    4  C   UNL     1     -11.952  12.111  63.865  1.00  0.00    -0.486 A  
HETATM    5  O   UNL     1     -12.749  11.481  62.950  1.00  0.00    -0.947 OA 
HETATM    6  C   UNL     1     -12.458  13.231  64.520  1.00  0.00    -0.381 A  
HETATM    7  C   UNL     1     -11.644  13.912  65.426  1.00  0.00    -0.331 A  
HETATM    8  H   UNL     1     -13.633  11.791  62.790  1.00  0.00     0.000 HD 
HETATM    9  C   UNL     1     -10.346  13.462  65.697  1.00  0.00    -0.295 A  
HETATM   10  C   UNL     1      -9.867  12.313  65.045  1.00  0.00    -0.158 A  
BRANCH   9  11
HETATM   11  C   UNL     1      -9.421  14.227  66.606  1.00  0.00    -0.286 C  
BRANCH  11  12
HETATM   12  N   UNL     1      -9.982  15.483  67.007  1.00  0.00    -0.236 N  
HETATM   13  C   UNL     1     -10.021  15.869  68.326  1.00  0.00    -0.222 C  
HETATM   14  H   UNL     1     -10.361  16.108  66.295  1.00  0.00     0.000 HD 
HETATM   15  O   UNL     1      -9.583  15.205  69.247  1.00  0.00    -0.221 OA 
BRANCH  13  16
HETATM   16  C   UNL     1     -10.749  17.172  68.516  1.00  0.00    -0.326 C  
BRANCH  16  17
HETATM   17  C   UNL     1      -9.820  18.354  68.755  1.00  0.00    -0.388 C  
BRANCH  17  18
HETATM   18  C   UNL     1      -9.960  19.465  67.703  1.00  0.00    -0.476 C  
BRANCH  18  19
HETATM   19  C   UNL     1      -9.084  19.316  66.452  1.00  0.00    -0.381 C  
BRANCH  19  20
HETATM   20  C   UNL     1      -7.974  20.326  66.343  1.00  0.00    -0.245 C  
HETATM   21  C   UNL     1      -6.747  20.108  65.836  1.00  0.00    -0.271 C  
HETATM   22  C   UNL     1      -6.280  18.856  65.136  1.00  0.00    -0.313 C  
HETATM   23  C   UNL     1      -5.622  17.877  66.106  1.00  0.00    -0.233 C  
HETATM   24  C   UNL     1      -5.321  19.219  64.004  1.00  0.00    -0.290 C  
ENDBRANCH  19  20
ENDBRANCH  18  19
ENDBRANCH  17  18
ENDBRANCH  16  17
ENDBRANCH  13  16
ENDBRANCH  11  12
ENDBRANCH   9  11
ENDBRANCH   2   3
TORSDOF 8
ENDMDL
MODEL      144
REMARK 921   NORMALIZED FREE ENERGY PREDICTED BY IDOCK:   -4.63 KCAL/MOL
REMARK 922        TOTAL FREE ENERGY PREDICTED BY IDOCK:   -8.01 KCAL/MOL
REMARK 923 INTER-LIGAND FREE ENERGY PREDICTED BY IDOCK:   -6.91 KCAL/MOL
REMARK 924 INTRA-LIGAND FREE ENERGY PREDICTED BY IDOCK:   -1.10 KCAL/MOL
REMARK 927      BINDING AFFINITY PREDICTED BY RF-SCORE:    0.00 PKD
ROOT
HETATM    1  C   UNL     1     -10.089  15.545  69.771  1.00  0.00    -0.285 C  
HETATM    2  O   UNL     1     -11.389  15.840  70.284  1.00  0.00    -0.299 OA 
ENDROOT
BRANCH   2   3
HETATM    3  C   UNL     1     -12.057  14.751  70.777  1.00  0.00    -0.309 A  
HETATM    4  C   UNL     1     -12.689  14.910  72.010  1.00  0.00    -0.324 A  
HETATM    5  O   UNL     1     -12.625  16.107  72.669  1.00  0.00    -0.450 OA 
HETATM    6  C   UNL     1     -13.368  13.858  72.619  1.00  0.00    -0.640 A  
HETATM    7  C   UNL     1     -13.409  12.617  71.982  1.00  0.00    -0.555 A  
HETATM    8  H   UNL     1     -13.056  16.216  73.508  1.00  0.00     0.000 HD 
HETATM    9  C   UNL     1     -12.801  12.436  70.734  1.00  0.00    -0.097 A  
HETATM   10  C   UNL     1     -12.145  13.521  70.125  1.00  0.00    -0.425 A  
BRANCH   9  11
HETATM   11  C   UNL     1     -12.759  11.088  70.066  1.00  0.00    -0.093 C  
BRANCH  11  12
HETATM   12  N   UNL     1     -12.030  10.129  70.842  1.00  0.00    -0.336 N  
HETATM   13  C   UNL     1     -12.665   9.101  71.500  1.00  0.00    -0.341 C  
HETATM   14  H   UNL     1     -11.016  10.210  70.908  1.00  0.00     0.000 HD 
HETATM   15  O   UNL     1     -13.866   8.908  71.473  1.00  0.00    -0.385 OA 
BRANCH  13  16
HETATM   16  C   UNL     1     -11.712   8.287  72.334  1.00  0.00    -0.463 C  
BRANCH  16  17
HETATM   17  C   UNL     1     -11.753   6.798  72.019  1.00  0.00    -0.343 C  
BRANCH  17  18
HETATM   18  C   UNL     1     -11.725   6.492  70.514  1.00  0.00    -0.438 C  
BRANCH  18  19
HETATM   19  C   UNL     1     -10.475   5.762  70.003  1.00  0.00    -0.353 C  
BRANCH  19  20
HETATM   20  C   UNL     1      -9.218   6.058  70.777  1.00  0.00    -0.165 C  
HETATM   21  C   UNL     1      -8.415   7.124  70.612  1.00  0.00    -0.138 C  
HETATM   22  C   UNL     1      -8.685   8.317  69.729  1.00  0.00    -0.134 C  
HETATM   23  C   UNL     1      -8.077   8.141  68.339  1.00  0.00    -0.128 C  
HETATM   24  C   UNL     1      -8.154   9.586  70.392  1.00  0.00    -0.209 C  
ENDBRANCH  19  20
ENDBRANCH  18  19
ENDBRANCH  17  18
ENDBRANCH  16  17
ENDBRANCH  13  16
ENDBRANCH  11  12
ENDBRANCH   9  11
ENDBRANCH   2   3
TORSDOF 8
ENDMDL
MODEL      145
REMARK 921   NORMALIZED FREE ENERGY PREDICTED BY IDOCK:   -4.62 KCAL/MOL
REMARK 922        TOTAL FREE ENERGY PREDICTED BY IDOCK:   -7.99 KCAL/MOL
REMARK 923 INTER-LIGAND FREE ENERGY PREDICTED BY IDOCK:   -7.03 KCAL/MOL
REMARK 924 INTRA-LIGAND FREE ENERGY PREDICTED BY IDOCK:   -0.96 KCAL/MOL
REMARK 927      BINDING AFFINITY PREDICTED BY RF-SCORE:    0.00 PKD
ROOT
HETATM    1  C   UNL     1     -10.999   6.476  68.775  1.00  0.00    -0.305 C  
HETATM    2  O   UNL     1     -10.927   6.532  70.201  1.00  0.00    -0.261 OA 
ENDROOT
BRANCH   2   3
HETATM    3  C   UNL     1     -11.533   7.631  70.749  1.00  0.00    -0.277 A  
HETATM    4  C   UNL     1     -12.216   7.434  71.949  1.00  0.00    -0.310 A  
HETATM    5  O   UNL     1     -12.262   6.193  72.523  1.00  0.00    -0.536 OA 
HETATM    6  C   UNL     1     -12.897   8.475  72.576  1.00  0.00    -0.310 A  
HETATM    7  C   UNL     1     -12.898   9.739  71.985  1.00  0.00    -0.491 A  
HETATM    8  H   UNL     1     -12.726   6.059  73.340  1.00  0.00     0.000 HD 
HETATM    9  C   UNL     1     -12.201   9.968  70.792  1.00  0.00    -0.408 A  
HETATM   10  C   UNL     1     -11.499   8.909  70.192  1.00  0.00    -0.047 A  
BRANCH   9  11
HETATM   11  C   UNL     1     -12.256  11.299  70.091  1.00  0.00    -0.330 C  
BRANCH  11  12
HETATM   12  N   UNL     1     -10.989  11.662  69.530  1.00  0.00    -0.444 N  
HETATM   13  C   UNL     1     -10.699  11.448  68.202  1.00  0.00    -0.202 C  
HETATM   14  H   UNL     1     -10.283  12.089  70.130  1.00  0.00     0.000 HD 
HETATM   15  O   UNL     1     -11.475  10.959  67.401  1.00  0.00    -0.479 OA 
BRANCH  13  16
HETATM   16  C   UNL     1      -9.277  11.807  67.866  1.00  0.00    -0.181 C  
BRANCH  16  17
HETATM   17  C   UNL     1      -8.901  13.227  68.266  1.00  0.00    -0.168 C  
BRANCH  17  18
HETATM   18  C   UNL     1      -8.705  14.168  67.068  1.00  0.00    -0.222 C  
BRANCH  18  19
HETATM   19  C   UNL     1      -9.711  15.321  66.950  1.00  0.00    -0.243 C  
BRANCH  19  20
HETATM   20  C   UNL     1     -11.120  14.963  67.339  1.00  0.00    -0.325 C  
HETATM   21  C   UNL     1     -12.062  14.445  66.530  1.00  0.00    -0.395 C  
HETATM   22  C   UNL     1     -11.859  13.973  65.111  1.00  0.00    -0.370 C  
HETATM   23  C   UNL     1     -12.160  15.078  64.100  1.00  0.00    -0.244 C  
HETATM   24  C   UNL     1     -12.725  12.745  64.841  1.00  0.00    -0.479 C  
ENDBRANCH  19  20
ENDBRANCH  18  19
ENDBRANCH  17  18
ENDBRANCH  16  17
ENDBRANCH  13  16
ENDBRANCH  11  12
ENDBRANCH   9  11
ENDBRANCH   2   3
TORSDOF 8
ENDMDL
MODEL      146
REMARK 921   NORMALIZED FREE ENERGY PREDICTED BY IDOCK:   -4.61 KCAL/MOL
REMARK 922        TOTAL FREE ENERGY PREDICTED BY IDOCK:   -7.98 KCAL/MOL
REMARK 923 INTER-LIGAND FREE ENERGY PREDICTED BY IDOCK:   -6.80 KCAL/MOL
REMARK 924 INTRA-LIGAND FREE ENERGY PREDICTED BY IDOCK:   -1.18 KCAL/MOL
REMARK 927      BINDING AFFINITY PREDICTED BY RF-SCORE:    0.00 PKD
ROOT
HETATM    1  C   UNL     1     -10.821   6.282  67.144  1.00  0.00    -0.381 C  
HETATM    2  O   UNL     1     -10.572   6.195  68.548  1.00  0.00    -0.212 OA 
ENDROOT
BRANCH   2   3
HETATM    3  C   UNL     1     -10.596   7.402  69.196  1.00  0.00    -0.204 A  
HETATM    4  C   UNL     1     -11.219   7.429  70.445  1.00  0.00    -0.262 A  
HETATM    5  O   UNL     1     -11.769   6.291  70.966  1.00  0.00    -0.319 OA 
HETATM    6  C   UNL     1     -11.329   8.610  71.175  1.00  0.00    -0.329 A  
HETATM    7  C   UNL     1     -10.811   9.790  70.640  1.00  0.00    -0.396 A  
HETATM    8  H   UNL     1     -12.193   6.310  71.816  1.00  0.00     0.000 HD 
HETATM    9  C   UNL     1     -10.162   9.786  69.399  1.00  0.00    -0.223 A  
HETATM   10  C   UNL     1     -10.037   8.577  68.693  1.00  0.00    -0.207 A  
BRANCH   9  11
HETATM   11  C   UNL     1      -9.669  11.058  68.764  1.00  0.00    -0.191 C  
BRANCH  11  12
HETATM   12  N   UNL     1     -10.517  12.172  69.069  1.00  0.00    -0.418 N  
HETATM   13  C   UNL     1     -11.561  12.531  68.248  1.00  0.00    -0.328 C  
HETATM   14  H   UNL     1     -10.342  12.713  69.916  1.00  0.00     0.000 HD 
HETATM   15  O   UNL     1     -11.862  11.944  67.225  1.00  0.00    -0.576 OA 
BRANCH  13  16
HETATM   16  C   UNL     1     -12.241  13.791  68.713  1.00  0.00    -0.221 C  
BRANCH  16  17
HETATM   17  C   UNL     1     -11.536  14.463  69.882  1.00  0.00    -0.314 C  
BRANCH  17  18
HETATM   18  C   UNL     1     -11.701  15.990  69.899  1.00  0.00    -0.276 C  
BRANCH  18  19
HETATM   19  C   UNL     1     -10.464  16.802  69.492  1.00  0.00    -0.263 C  
BRANCH  19  20
HETATM   20  C   UNL     1     -10.619  17.576  68.210  1.00  0.00    -0.354 C  
HETATM   21  C   UNL     1     -10.377  17.116  66.970  1.00  0.00    -0.308 C  
HETATM   22  C   UNL     1     -10.052  15.692  66.593  1.00  0.00    -0.280 C  
HETATM   23  C   UNL     1      -8.544  15.449  66.549  1.00  0.00    -0.294 C  
HETATM   24  C   UNL     1     -10.692  15.349  65.250  1.00  0.00    -0.439 C  
ENDBRANCH  19  20
ENDBRANCH  18  19
ENDBRANCH  17  18
ENDBRANCH  16  17
ENDBRANCH  13  16
ENDBRANCH  11  12
ENDBRANCH   9  11
ENDBRANCH   2   3
TORSDOF 8
ENDMDL
MODEL      147
REMARK 921   NORMALIZED FREE ENERGY PREDICTED BY IDOCK:   -4.61 KCAL/MOL
REMARK 922        TOTAL FREE ENERGY PREDICTED BY IDOCK:   -7.97 KCAL/MOL
REMARK 923 INTER-LIGAND FREE ENERGY PREDICTED BY IDOCK:   -6.37 KCAL/MOL
REMARK 924 INTRA-LIGAND FREE ENERGY PREDICTED BY IDOCK:   -1.60 KCAL/MOL
REMARK 927      BINDING AFFINITY PREDICTED BY RF-SCORE:    0.00 PKD
ROOT
HETATM    1  C   UNL     1     -10.710   6.818  69.002  1.00  0.00    -0.246 C  
HETATM    2  O   UNL     1     -10.736   8.187  69.412  1.00  0.00    -0.224 OA 
ENDROOT
BRANCH   2   3
HETATM    3  C   UNL     1     -10.052   9.034  68.581  1.00  0.00    -0.189 A  
HETATM    4  C   UNL     1      -9.265  10.010  69.194  1.00  0.00    -0.190 A  
HETATM    5  O   UNL     1      -9.203  10.091  70.557  1.00  0.00    -0.322 OA 
HETATM    6  C   UNL     1      -8.554  10.944  68.445  1.00  0.00    -0.146 A  
HETATM    7  C   UNL     1      -8.638  10.904  67.052  1.00  0.00    -0.136 A  
HETATM    8  H   UNL     1      -8.667  10.755  70.974  1.00  0.00     0.000 HD 
HETATM    9  C   UNL     1      -9.403   9.921  66.412  1.00  0.00    -0.213 A  
HETATM   10  C   UNL     1     -10.090   8.971  67.188  1.00  0.00    -0.309 A  
BRANCH   9  11
HETATM   11  C   UNL     1      -9.577   9.907  64.917  1.00  0.00    -0.288 C  
BRANCH  11  12
HETATM   12  N   UNL     1     -10.674  10.728  64.498  1.00  0.00    -0.261 N  
HETATM   13  C   UNL     1     -10.524  11.698  63.535  1.00  0.00    -0.443 C  
HETATM   14  H   UNL     1     -11.590  10.589  64.926  1.00  0.00     0.000 HD 
HETATM   15  O   UNL     1      -9.480  11.932  62.955  1.00  0.00    -0.358 OA 
BRANCH  13  16
HETATM   16  C   UNL     1     -11.781  12.502  63.338  1.00  0.00    -0.567 C  
BRANCH  16  17
HETATM   17  C   UNL     1     -12.685  12.522  64.563  1.00  0.00    -0.440 C  
BRANCH  17  18
HETATM   18  C   UNL     1     -12.492  13.765  65.444  1.00  0.00    -0.532 C  
BRANCH  18  19
HETATM   19  C   UNL     1     -11.313  13.713  66.425  1.00  0.00    -0.331 C  
BRANCH  19  20
HETATM   20  C   UNL     1     -10.079  14.439  65.959  1.00  0.00    -0.338 C  
HETATM   21  C   UNL     1      -9.058  14.848  66.733  1.00  0.00    -0.295 C  
HETATM   22  C   UNL     1      -8.862  14.531  68.195  1.00  0.00    -0.177 C  
HETATM   23  C   UNL     1      -9.456  15.615  69.092  1.00  0.00    -0.256 C  
HETATM   24  C   UNL     1      -7.377  14.340  68.492  1.00  0.00    -0.117 C  
ENDBRANCH  19  20
ENDBRANCH  18  19
ENDBRANCH  17  18
ENDBRANCH  16  17
ENDBRANCH  13  16
ENDBRANCH  11  12
ENDBRANCH   9  11
ENDBRANCH   2   3
TORSDOF 8
ENDMDL
MODEL      148
REMARK 921   NORMALIZED FREE ENERGY PREDICTED BY IDOCK:   -4.60 KCAL/MOL
REMARK 922        TOTAL FREE ENERGY PREDICTED BY IDOCK:   -7.97 KCAL/MOL
REMARK 923 INTER-LIGAND FREE ENERGY PREDICTED BY IDOCK:   -7.12 KCAL/MOL
REMARK 924 INTRA-LIGAND FREE ENERGY PREDICTED BY IDOCK:   -0.85 KCAL/MOL
REMARK 927      BINDING AFFINITY PREDICTED BY RF-SCORE:    0.00 PKD
ROOT
HETATM    1  C   UNL     1     -11.754  15.964  71.501  1.00  0.00    -0.475 C  
HETATM    2  O   UNL     1     -12.810  15.282  70.822  1.00  0.00    -0.393 OA 
ENDROOT
BRANCH   2   3
HETATM    3  C   UNL     1     -12.575  13.948  70.619  1.00  0.00    -0.335 A  
HETATM    4  C   UNL     1     -13.201  13.062  71.496  1.00  0.00    -0.272 A  
HETATM    5  O   UNL     1     -14.000  13.534  72.500  1.00  0.00    -0.701 OA 
HETATM    6  C   UNL     1     -13.004  11.687  71.401  1.00  0.00    -0.426 A  
HETATM    7  C   UNL     1     -12.158  11.188  70.410  1.00  0.00    -0.475 A  
HETATM    8  H   UNL     1     -14.426  12.931  73.098  1.00  0.00     0.000 HD 
HETATM    9  C   UNL     1     -11.536  12.054  69.502  1.00  0.00    -0.389 A  
HETATM   10  C   UNL     1     -11.771  13.437  69.600  1.00  0.00    -0.375 A  
BRANCH   9  11
HETATM   11  C   UNL     1     -10.555  11.550  68.478  1.00  0.00    -0.210 C  
BRANCH  11  12
HETATM   12  N   UNL     1      -9.597  12.552  68.115  1.00  0.00    -0.212 N  
HETATM   13  C   UNL     1      -8.246  12.300  68.132  1.00  0.00    -0.168 C  
HETATM   14  H   UNL     1      -9.927  13.476  67.836  1.00  0.00     0.000 HD 
HETATM   15  O   UNL     1      -7.752  11.229  68.435  1.00  0.00    -0.109 OA 
BRANCH  13  16
HETATM   16  C   UNL     1      -7.434  13.527  67.818  1.00  0.00    -0.168 C  
BRANCH  16  17
HETATM   17  C   UNL     1      -7.749  14.709  68.726  1.00  0.00    -0.137 C  
BRANCH  17  18
HETATM   18  C   UNL     1      -8.335  15.915  67.977  1.00  0.00    -0.161 C  
BRANCH  18  19
HETATM   19  C   UNL     1      -8.713  15.673  66.510  1.00  0.00    -0.342 C  
BRANCH  19  20
HETATM   20  C   UNL     1     -10.109  16.101  66.145  1.00  0.00    -0.356 C  
HETATM   21  C   UNL     1     -10.593  17.356  66.189  1.00  0.00    -0.208 C  
HETATM   22  C   UNL     1      -9.800  18.610  66.463  1.00  0.00    -0.388 C  
HETATM   23  C   UNL     1      -9.814  18.975  67.946  1.00  0.00    -0.400 C  
HETATM   24  C   UNL     1     -10.340  19.762  65.619  1.00  0.00    -0.421 C  
ENDBRANCH  19  20
ENDBRANCH  18  19
ENDBRANCH  17  18
ENDBRANCH  16  17
ENDBRANCH  13  16
ENDBRANCH  11  12
ENDBRANCH   9  11
ENDBRANCH   2   3
TORSDOF 8
ENDMDL
MODEL      149
REMARK 921   NORMALIZED FREE ENERGY PREDICTED BY IDOCK:   -4.57 KCAL/MOL
REMARK 922        TOTAL FREE ENERGY PREDICTED BY IDOCK:   -7.92 KCAL/MOL
REMARK 923 INTER-LIGAND FREE ENERGY PREDICTED BY IDOCK:   -6.76 KCAL/MOL
REMARK 924 INTRA-LIGAND FREE ENERGY PREDICTED BY IDOCK:   -1.16 KCAL/MOL
REMARK 927      BINDING AFFINITY PREDICTED BY RF-SCORE:    0.00 PKD
ROOT
HETATM    1  C   UNL     1     -10.934   6.406  68.869  1.00  0.00    -0.346 C  
HETATM    2  O   UNL     1     -10.679   7.592  69.623  1.00  0.00    -0.238 OA 
ENDROOT
BRANCH   2   3
HETATM    3  C   UNL     1     -10.193   8.635  68.879  1.00  0.00    -0.207 A  
HETATM    4  C   UNL     1      -9.772   9.763  69.584  1.00  0.00    -0.222 A  
HETATM    5  O   UNL     1      -9.856   9.795  70.949  1.00  0.00    -0.312 OA 
HETATM    6  C   UNL     1      -9.292  10.892  68.926  1.00  0.00    -0.169 A  
HETATM    7  C   UNL     1      -9.239  10.894  67.532  1.00  0.00    -0.153 A  
HETATM    8  H   UNL     1      -9.568  10.563  71.429  1.00  0.00     0.000 HD 
HETATM    9  C   UNL     1      -9.634   9.767  66.802  1.00  0.00    -0.228 A  
HETATM   10  C   UNL     1     -10.089   8.628  67.488  1.00  0.00    -0.277 A  
BRANCH   9  11
HETATM   11  C   UNL     1      -9.665   9.774  65.296  1.00  0.00    -0.300 C  
BRANCH  11  12
HETATM   12  N   UNL     1     -10.601  10.732  64.785  1.00  0.00    -0.270 N  
HETATM   13  C   UNL     1     -10.403  11.361  63.578  1.00  0.00    -0.423 C  
HETATM   14  H   UNL     1     -11.434  10.953  65.330  1.00  0.00     0.000 HD 
HETATM   15  O   UNL     1      -9.452  11.157  62.846  1.00  0.00    -0.321 OA 
BRANCH  13  16
HETATM   16  C   UNL     1     -11.456  12.399  63.299  1.00  0.00    -0.426 C  
BRANCH  16  17
HETATM   17  C   UNL     1     -12.492  12.523  64.409  1.00  0.00    -0.530 C  
BRANCH  17  18
HETATM   18  C   UNL     1     -12.489  13.897  65.096  1.00  0.00    -0.479 C  
BRANCH  18  19
HETATM   19  C   UNL     1     -12.660  13.882  66.621  1.00  0.00    -0.177 C  
BRANCH  19  20
HETATM   20  C   UNL     1     -11.412  13.533  67.387  1.00  0.00    -0.366 C  
HETATM   21  C   UNL     1     -10.822  14.286  68.332  1.00  0.00    -0.263 C  
HETATM   22  C   UNL     1     -11.368  15.560  68.929  1.00  0.00    -0.329 C  
HETATM   23  C   UNL     1     -10.860  16.795  68.187  1.00  0.00    -0.353 C  
HETATM   24  C   UNL     1     -11.011  15.636  70.411  1.00  0.00    -0.366 C  
ENDBRANCH  19  20
ENDBRANCH  18  19
ENDBRANCH  17  18
ENDBRANCH  16  17
ENDBRANCH  13  16
ENDBRANCH  11  12
ENDBRANCH   9  11
ENDBRANCH   2   3
TORSDOF 8
ENDMDL
MODEL      150
REMARK 921   NORMALIZED FREE ENERGY PREDICTED BY IDOCK:   -4.56 KCAL/MOL
REMARK 922        TOTAL FREE ENERGY PREDICTED BY IDOCK:   -7.91 KCAL/MOL
REMARK 923 INTER-LIGAND FREE ENERGY PREDICTED BY IDOCK:   -6.90 KCAL/MOL
REMARK 924 INTRA-LIGAND FREE ENERGY PREDICTED BY IDOCK:   -1.01 KCAL/MOL
REMARK 927      BINDING AFFINITY PREDICTED BY RF-SCORE:    0.00 PKD
ROOT
HETATM    1  C   UNL     1     -10.502  14.665  68.774  1.00  0.00    -0.246 C  
HETATM    2  O   UNL     1     -11.822  14.875  69.278  1.00  0.00    -0.299 OA 
ENDROOT
BRANCH   2   3
HETATM    3  C   UNL     1     -12.267  13.884  70.113  1.00  0.00    -0.358 A  
HETATM    4  C   UNL     1     -13.033  14.286  71.208  1.00  0.00    -0.352 A  
HETATM    5  O   UNL     1     -13.306  15.610  71.411  1.00  0.00    -0.499 OA 
HETATM    6  C   UNL     1     -13.507  13.365  72.138  1.00  0.00    -0.646 A  
HETATM    7  C   UNL     1     -13.204  12.013  71.972  1.00  0.00    -0.481 A  
HETATM    8  H   UNL     1     -13.828  15.883  72.156  1.00  0.00     0.000 HD 
HETATM    9  C   UNL     1     -12.456  11.581  70.869  1.00  0.00    -0.464 A  
HETATM   10  C   UNL     1     -12.011  12.525  69.928  1.00  0.00    -0.371 A  
BRANCH   9  11
HETATM   11  C   UNL     1     -12.044  10.141  70.712  1.00  0.00    -0.343 C  
BRANCH  11  12
HETATM   12  N   UNL     1     -10.819  10.012  69.980  1.00  0.00    -0.280 N  
HETATM   13  C   UNL     1      -9.697   9.450  70.543  1.00  0.00    -0.271 C  
HETATM   14  H   UNL     1     -10.778  10.345  69.017  1.00  0.00     0.000 HD 
HETATM   15  O   UNL     1      -9.646   9.010  71.676  1.00  0.00    -0.288 OA 
BRANCH  13  16
HETATM   16  C   UNL     1      -8.506   9.519  69.626  1.00  0.00    -0.174 C  
BRANCH  16  17
HETATM   17  C   UNL     1      -8.326   8.270  68.774  1.00  0.00    -0.124 C  
BRANCH  17  18
HETATM   18  C   UNL     1      -8.639   8.493  67.287  1.00  0.00    -0.123 C  
BRANCH  18  19
HETATM   19  C   UNL     1     -10.051   8.099  66.834  1.00  0.00    -0.367 C  
BRANCH  19  20
HETATM   20  C   UNL     1     -10.756   7.136  67.752  1.00  0.00    -0.282 C  
HETATM   21  C   UNL     1     -10.731   5.794  67.666  1.00  0.00    -0.313 C  
HETATM   22  C   UNL     1      -9.874   4.974  66.734  1.00  0.00    -0.212 C  
HETATM   23  C   UNL     1     -10.605   4.648  65.433  1.00  0.00    -0.167 C  
HETATM   24  C   UNL     1      -9.421   3.693  67.433  1.00  0.00    -0.238 C  
ENDBRANCH  19  20
ENDBRANCH  18  19
ENDBRANCH  17  18
ENDBRANCH  16  17
ENDBRANCH  13  16
ENDBRANCH  11  12
ENDBRANCH   9  11
ENDBRANCH   2   3
TORSDOF 8
ENDMDL
MODEL      151
REMARK 921   NORMALIZED FREE ENERGY PREDICTED BY IDOCK:   -4.55 KCAL/MOL
REMARK 922        TOTAL FREE ENERGY PREDICTED BY IDOCK:   -7.89 KCAL/MOL
REMARK 923 INTER-LIGAND FREE ENERGY PREDICTED BY IDOCK:   -7.14 KCAL/MOL
REMARK 924 INTRA-LIGAND FREE ENERGY PREDICTED BY IDOCK:   -0.75 KCAL/MOL
REMARK 927      BINDING AFFINITY PREDICTED BY RF-SCORE:    0.00 PKD
ROOT
HETATM    1  C   UNL     1     -10.821   5.522  70.437  1.00  0.00    -0.204 C  
HETATM    2  O   UNL     1     -11.462   6.005  69.255  1.00  0.00    -0.345 OA 
ENDROOT
BRANCH   2   3
HETATM    3  C   UNL     1     -10.780   7.006  68.616  1.00  0.00    -0.189 A  
HETATM    4  C   UNL     1     -10.737   6.944  67.223  1.00  0.00    -0.351 A  
HETATM    5  O   UNL     1     -11.353   5.920  66.558  1.00  0.00    -0.707 OA 
HETATM    6  C   UNL     1     -10.042   7.891  66.475  1.00  0.00    -0.246 A  
HETATM    7  C   UNL     1      -9.371   8.920  67.138  1.00  0.00    -0.182 A  
HETATM    8  H   UNL     1     -11.324   5.877  65.610  1.00  0.00     0.000 HD 
HETATM    9  C   UNL     1      -9.417   9.018  68.534  1.00  0.00    -0.148 A  
HETATM   10  C   UNL     1     -10.148   8.066  69.266  1.00  0.00    -0.198 A  
BRANCH   9  11
HETATM   11  C   UNL     1      -8.634  10.068  69.276  1.00  0.00    -0.168 C  
BRANCH  11  12
HETATM   12  N   UNL     1      -9.065  11.393  68.942  1.00  0.00    -0.377 N  
HETATM   13  C   UNL     1      -8.356  12.184  68.068  1.00  0.00    -0.167 C  
HETATM   14  H   UNL     1      -9.918  11.760  69.362  1.00  0.00     0.000 HD 
HETATM   15  O   UNL     1      -7.336  11.836  67.502  1.00  0.00    -0.109 OA 
BRANCH  13  16
HETATM   16  C   UNL     1      -8.937  13.567  67.953  1.00  0.00    -0.200 C  
BRANCH  16  17
HETATM   17  C   UNL     1     -10.024  13.680  66.892  1.00  0.00    -0.260 C  
BRANCH  17  18
HETATM   18  C   UNL     1     -11.424  13.319  67.411  1.00  0.00    -0.371 C  
BRANCH  18  19
HETATM   19  C   UNL     1     -11.936  14.155  68.591  1.00  0.00    -0.373 C  
BRANCH  19  20
HETATM   20  C   UNL     1     -12.236  13.362  69.835  1.00  0.00    -0.337 C  
HETATM   21  C   UNL     1     -12.658  13.859  71.012  1.00  0.00    -0.444 C  
HETATM   22  C   UNL     1     -13.064  15.286  71.285  1.00  0.00    -0.540 C  
HETATM   23  C   UNL     1     -11.893  16.117  71.805  1.00  0.00    -0.581 C  
HETATM   24  C   UNL     1     -14.227  15.316  72.274  1.00  0.00    -0.642 C  
ENDBRANCH  19  20
ENDBRANCH  18  19
ENDBRANCH  17  18
ENDBRANCH  16  17
ENDBRANCH  13  16
ENDBRANCH  11  12
ENDBRANCH   9  11
ENDBRANCH   2   3
TORSDOF 8
ENDMDL
MODEL      152
REMARK 921   NORMALIZED FREE ENERGY PREDICTED BY IDOCK:   -4.54 KCAL/MOL
REMARK 922        TOTAL FREE ENERGY PREDICTED BY IDOCK:   -7.88 KCAL/MOL
REMARK 923 INTER-LIGAND FREE ENERGY PREDICTED BY IDOCK:   -6.80 KCAL/MOL
REMARK 924 INTRA-LIGAND FREE ENERGY PREDICTED BY IDOCK:   -1.08 KCAL/MOL
REMARK 927      BINDING AFFINITY PREDICTED BY RF-SCORE:    0.00 PKD
ROOT
HETATM    1  C   UNL     1      -7.833   9.187  70.131  1.00  0.00    -0.113 C  
HETATM    2  O   UNL     1      -8.245   8.536  71.334  1.00  0.00    -0.121 OA 
ENDROOT
BRANCH   2   3
HETATM    3  C   UNL     1      -9.581   8.662  71.610  1.00  0.00    -0.274 A  
HETATM    4  C   UNL     1     -10.143   7.690  72.438  1.00  0.00    -0.211 A  
HETATM    5  O   UNL     1      -9.372   6.675  72.933  1.00  0.00    -0.136 OA 
HETATM    6  C   UNL     1     -11.499   7.703  72.756  1.00  0.00    -0.384 A  
HETATM    7  C   UNL     1     -12.310   8.708  72.227  1.00  0.00    -0.449 A  
HETATM    8  H   UNL     1      -9.755   6.014  73.497  1.00  0.00     0.000 HD 
HETATM    9  C   UNL     1     -11.767   9.708  71.410  1.00  0.00    -0.478 A  
HETATM   10  C   UNL     1     -10.391   9.690  71.126  1.00  0.00    -0.236 A  
BRANCH   9  11
HETATM   11  C   UNL     1     -12.635  10.752  70.760  1.00  0.00    -0.383 C  
BRANCH  11  12
HETATM   12  N   UNL     1     -11.864  11.847  70.251  1.00  0.00    -0.479 N  
HETATM   13  C   UNL     1     -11.691  12.042  68.901  1.00  0.00    -0.326 C  
HETATM   14  H   UNL     1     -11.433  12.499  70.907  1.00  0.00     0.000 HD 
HETATM   15  O   UNL     1     -12.175  11.333  68.038  1.00  0.00    -0.621 OA 
BRANCH  13  16
HETATM   16  C   UNL     1     -10.760  13.188  68.607  1.00  0.00    -0.274 C  
BRANCH  16  17
HETATM   17  C   UNL     1      -9.375  12.741  68.158  1.00  0.00    -0.214 C  
BRANCH  17  18
HETATM   18  C   UNL     1      -8.555  13.861  67.500  1.00  0.00    -0.195 C  
BRANCH  18  19
HETATM   19  C   UNL     1      -9.260  15.219  67.372  1.00  0.00    -0.201 C  
BRANCH  19  20
HETATM   20  C   UNL     1      -9.329  15.757  65.968  1.00  0.00    -0.384 C  
HETATM   21  C   UNL     1     -10.130  15.312  64.984  1.00  0.00    -0.250 C  
HETATM   22  C   UNL     1     -11.230  14.289  65.122  1.00  0.00    -0.345 C  
HETATM   23  C   UNL     1     -10.732  12.878  64.816  1.00  0.00    -0.354 C  
HETATM   24  C   UNL     1     -12.401  14.656  64.213  1.00  0.00    -0.375 C  
ENDBRANCH  19  20
ENDBRANCH  18  19
ENDBRANCH  17  18
ENDBRANCH  16  17
ENDBRANCH  13  16
ENDBRANCH  11  12
ENDBRANCH   9  11
ENDBRANCH   2   3
TORSDOF 8
ENDMDL
MODEL      153
REMARK 921   NORMALIZED FREE ENERGY PREDICTED BY IDOCK:   -4.54 KCAL/MOL
REMARK 922        TOTAL FREE ENERGY PREDICTED BY IDOCK:   -7.88 KCAL/MOL
REMARK 923 INTER-LIGAND FREE ENERGY PREDICTED BY IDOCK:   -7.22 KCAL/MOL
REMARK 924 INTRA-LIGAND FREE ENERGY PREDICTED BY IDOCK:   -0.66 KCAL/MOL
REMARK 927      BINDING AFFINITY PREDICTED BY RF-SCORE:    0.00 PKD
ROOT
HETATM    1  C   UNL     1      -9.458   5.029  70.648  1.00  0.00    -0.169 C  
HETATM    2  O   UNL     1     -10.813   5.479  70.638  1.00  0.00    -0.258 OA 
ENDROOT
BRANCH   2   3
HETATM    3  C   UNL     1     -10.956   6.830  70.817  1.00  0.00    -0.262 A  
HETATM    4  C   UNL     1     -11.889   7.240  71.769  1.00  0.00    -0.295 A  
HETATM    5  O   UNL     1     -12.612   6.315  72.470  1.00  0.00    -0.541 OA 
HETATM    6  C   UNL     1     -12.139   8.589  72.007  1.00  0.00    -0.428 A  
HETATM    7  C   UNL     1     -11.442   9.549  71.271  1.00  0.00    -0.447 A  
HETATM    8  H   UNL     1     -13.247   6.594  73.119  1.00  0.00     0.000 HD 
HETATM    9  C   UNL     1     -10.484   9.164  70.325  1.00  0.00    -0.257 A  
HETATM   10  C   UNL     1     -10.229   7.797  70.121  1.00  0.00    -0.205 A  
BRANCH   9  11
HETATM   11  C   UNL     1      -9.780  10.175  69.460  1.00  0.00    -0.229 C  
BRANCH  11  12
HETATM   12  N   UNL     1     -10.439  11.448  69.480  1.00  0.00    -0.441 N  
HETATM   13  C   UNL     1     -11.431  11.762  68.580  1.00  0.00    -0.288 C  
HETATM   14  H   UNL     1     -10.166  12.138  70.179  1.00  0.00     0.000 HD 
HETATM   15  O   UNL     1     -11.839  11.005  67.719  1.00  0.00    -0.605 OA 
BRANCH  13  16
HETATM   16  C   UNL     1     -11.899  13.185  68.724  1.00  0.00    -0.361 C  
BRANCH  16  17
HETATM   17  C   UNL     1     -10.962  14.197  68.080  1.00  0.00    -0.269 C  
BRANCH  17  18
HETATM   18  C   UNL     1     -10.141  15.003  69.098  1.00  0.00    -0.245 C  
BRANCH  18  19
HETATM   19  C   UNL     1     -10.506  16.488  69.227  1.00  0.00    -0.326 C  
BRANCH  19  20
HETATM   20  C   UNL     1     -10.711  17.198  67.915  1.00  0.00    -0.355 C  
HETATM   21  C   UNL     1      -9.800  17.942  67.263  1.00  0.00    -0.309 C  
HETATM   22  C   UNL     1      -8.344  18.096  67.630  1.00  0.00    -0.244 C  
HETATM   23  C   UNL     1      -8.112  19.309  68.528  1.00  0.00    -0.401 C  
HETATM   24  C   UNL     1      -7.496  18.192  66.364  1.00  0.00    -0.287 C  
ENDBRANCH  19  20
ENDBRANCH  18  19
ENDBRANCH  17  18
ENDBRANCH  16  17
ENDBRANCH  13  16
ENDBRANCH  11  12
ENDBRANCH   9  11
ENDBRANCH   2   3
TORSDOF 8
ENDMDL
MODEL      154
REMARK 921   NORMALIZED FREE ENERGY PREDICTED BY IDOCK:   -4.53 KCAL/MOL
REMARK 922        TOTAL FREE ENERGY PREDICTED BY IDOCK:   -7.87 KCAL/MOL
REMARK 923 INTER-LIGAND FREE ENERGY PREDICTED BY IDOCK:   -6.99 KCAL/MOL
REMARK 924 INTRA-LIGAND FREE ENERGY PREDICTED BY IDOCK:   -0.88 KCAL/MOL
REMARK 927      BINDING AFFINITY PREDICTED BY RF-SCORE:    0.00 PKD
ROOT
HETATM    1  C   UNL     1     -13.917  15.272  71.885  1.00  0.00    -0.542 C  
HETATM    2  O   UNL     1     -12.873  14.328  72.128  1.00  0.00    -0.332 OA 
ENDROOT
BRANCH   2   3
HETATM    3  C   UNL     1     -12.591  13.517  71.060  1.00  0.00    -0.359 A  
HETATM    4  C   UNL     1     -12.841  12.155  71.226  1.00  0.00    -0.250 A  
HETATM    5  O   UNL     1     -13.341  11.683  72.408  1.00  0.00    -0.592 OA 
HETATM    6  C   UNL     1     -12.560  11.238  70.217  1.00  0.00    -0.255 A  
HETATM    7  C   UNL     1     -12.010  11.694  69.018  1.00  0.00    -0.368 A  
HETATM    8  H   UNL     1     -13.512  10.756  72.521  1.00  0.00     0.000 HD 
HETATM    9  C   UNL     1     -11.770  13.059  68.818  1.00  0.00    -0.363 A  
HETATM   10  C   UNL     1     -12.088  13.970  69.840  1.00  0.00    -0.406 A  
BRANCH   9  11
HETATM   11  C   UNL     1     -11.100  13.567  67.569  1.00  0.00    -0.274 C  
BRANCH  11  12
HETATM   12  N   UNL     1      -9.782  14.063  67.832  1.00  0.00    -0.223 N  
HETATM   13  C   UNL     1      -8.663  13.443  67.328  1.00  0.00    -0.218 C  
HETATM   14  H   UNL     1      -9.671  14.898  68.407  1.00  0.00     0.000 HD 
HETATM   15  O   UNL     1      -8.688  12.453  66.621  1.00  0.00    -0.193 OA 
BRANCH  13  16
HETATM   16  C   UNL     1      -7.391  14.077  67.823  1.00  0.00    -0.176 C  
BRANCH  16  17
HETATM   17  C   UNL     1      -7.148  15.469  67.254  1.00  0.00    -0.225 C  
BRANCH  17  18
HETATM   18  C   UNL     1      -6.640  16.475  68.298  1.00  0.00    -0.138 C  
BRANCH  18  19
HETATM   19  C   UNL     1      -7.345  17.838  68.311  1.00  0.00    -0.240 C  
BRANCH  19  20
HETATM   20  C   UNL     1      -8.812  17.780  68.641  1.00  0.00    -0.263 C  
HETATM   21  C   UNL     1      -9.790  18.487  68.047  1.00  0.00    -0.370 C  
HETATM   22  C   UNL     1      -9.641  19.368  66.830  1.00  0.00    -0.419 C  
HETATM   23  C   UNL     1      -9.364  20.820  67.213  1.00  0.00    -0.418 C  
HETATM   24  C   UNL     1     -10.893  19.269  65.960  1.00  0.00    -0.365 C  
ENDBRANCH  19  20
ENDBRANCH  18  19
ENDBRANCH  17  18
ENDBRANCH  16  17
ENDBRANCH  13  16
ENDBRANCH  11  12
ENDBRANCH   9  11
ENDBRANCH   2   3
TORSDOF 8
ENDMDL
MODEL      155
REMARK 921   NORMALIZED FREE ENERGY PREDICTED BY IDOCK:   -4.52 KCAL/MOL
REMARK 922        TOTAL FREE ENERGY PREDICTED BY IDOCK:   -7.85 KCAL/MOL
REMARK 923 INTER-LIGAND FREE ENERGY PREDICTED BY IDOCK:   -7.07 KCAL/MOL
REMARK 924 INTRA-LIGAND FREE ENERGY PREDICTED BY IDOCK:   -0.78 KCAL/MOL
REMARK 927      BINDING AFFINITY PREDICTED BY RF-SCORE:    0.00 PKD
ROOT
HETATM    1  C   UNL     1     -12.215  11.670  70.372  1.00  0.00    -0.347 C  
HETATM    2  O   UNL     1     -12.565  10.766  71.422  1.00  0.00    -0.376 OA 
ENDROOT
BRANCH   2   3
HETATM    3  C   UNL     1     -12.232   9.461  71.171  1.00  0.00    -0.323 A  
HETATM    4  C   UNL     1     -12.897   8.491  71.923  1.00  0.00    -0.363 A  
HETATM    5  O   UNL     1     -13.826   8.858  72.856  1.00  0.00    -0.859 OA 
HETATM    6  C   UNL     1     -12.611   7.136  71.773  1.00  0.00    -0.381 A  
HETATM    7  C   UNL     1     -11.636   6.745  70.855  1.00  0.00    -0.403 A  
HETATM    8  H   UNL     1     -14.279   8.197  73.367  1.00  0.00     0.000 HD 
HETATM    9  C   UNL     1     -10.970   7.697  70.073  1.00  0.00    -0.237 A  
HETATM   10  C   UNL     1     -11.294   9.056  70.222  1.00  0.00    -0.202 A  
BRANCH   9  11
HETATM   11  C   UNL     1      -9.856   7.308  69.138  1.00  0.00    -0.166 C  
BRANCH  11  12
HETATM   12  N   UNL     1      -9.710   8.243  68.062  1.00  0.00    -0.157 N  
HETATM   13  C   UNL     1      -8.560   8.979  67.896  1.00  0.00    -0.125 C  
HETATM   14  H   UNL     1     -10.478   8.366  67.402  1.00  0.00     0.000 HD 
HETATM   15  O   UNL     1      -7.583   8.896  68.617  1.00  0.00    -0.093 OA 
BRANCH  13  16
HETATM   16  C   UNL     1      -8.676   9.968  66.767  1.00  0.00    -0.137 C  
BRANCH  16  17
HETATM   17  C   UNL     1      -9.462   9.437  65.576  1.00  0.00    -0.328 C  
BRANCH  17  18
HETATM   18  C   UNL     1     -10.051  10.544  64.690  1.00  0.00    -0.408 C  
BRANCH  18  19
HETATM   19  C   UNL     1     -10.591  11.776  65.430  1.00  0.00    -0.325 C  
BRANCH  19  20
HETATM   20  C   UNL     1     -10.634  13.033  64.602  1.00  0.00    -0.397 C  
HETATM   21  C   UNL     1     -10.363  14.278  65.031  1.00  0.00    -0.448 C  
HETATM   22  C   UNL     1      -9.813  14.656  66.385  1.00  0.00    -0.302 C  
HETATM   23  C   UNL     1     -10.927  14.981  67.377  1.00  0.00    -0.315 C  
HETATM   24  C   UNL     1      -8.853  15.835  66.246  1.00  0.00    -0.378 C  
ENDBRANCH  19  20
ENDBRANCH  18  19
ENDBRANCH  17  18
ENDBRANCH  16  17
ENDBRANCH  13  16
ENDBRANCH  11  12
ENDBRANCH   9  11
ENDBRANCH   2   3
TORSDOF 8
ENDMDL
MODEL      156
REMARK 921   NORMALIZED FREE ENERGY PREDICTED BY IDOCK:   -4.51 KCAL/MOL
REMARK 922        TOTAL FREE ENERGY PREDICTED BY IDOCK:   -7.84 KCAL/MOL
REMARK 923 INTER-LIGAND FREE ENERGY PREDICTED BY IDOCK:   -7.07 KCAL/MOL
REMARK 924 INTRA-LIGAND FREE ENERGY PREDICTED BY IDOCK:   -0.77 KCAL/MOL
REMARK 927      BINDING AFFINITY PREDICTED BY RF-SCORE:    0.00 PKD
ROOT
HETATM    1  C   UNL     1      -9.483   7.066  69.846  1.00  0.00    -0.157 C  
HETATM    2  O   UNL     1     -10.723   7.755  70.017  1.00  0.00    -0.239 OA 
ENDROOT
BRANCH   2   3
HETATM    3  C   UNL     1     -10.799   8.946  69.343  1.00  0.00    -0.119 A  
HETATM    4  C   UNL     1     -11.344  10.025  70.040  1.00  0.00    -0.275 A  
HETATM    5  O   UNL     1     -11.772   9.868  71.329  1.00  0.00    -0.354 OA 
HETATM    6  C   UNL     1     -11.499  11.272  69.440  1.00  0.00    -0.370 A  
HETATM    7  C   UNL     1     -11.107  11.440  68.111  1.00  0.00    -0.306 A  
HETATM    8  H   UNL     1     -12.142  10.603  71.804  1.00  0.00     0.000 HD 
HETATM    9  C   UNL     1     -10.537  10.379  67.397  1.00  0.00    -0.321 A  
HETATM   10  C   UNL     1     -10.364   9.137  68.031  1.00  0.00    -0.272 A  
BRANCH   9  11
HETATM   11  C   UNL     1     -10.184  10.511  65.939  1.00  0.00    -0.245 C  
BRANCH  11  12
HETATM   12  N   UNL     1     -10.946  11.539  65.294  1.00  0.00    -0.262 N  
HETATM   13  C   UNL     1     -10.716  11.895  63.986  1.00  0.00    -0.375 C  
HETATM   14  H   UNL     1     -11.677  12.019  65.819  1.00  0.00     0.000 HD 
HETATM   15  O   UNL     1      -9.880  11.375  63.271  1.00  0.00    -0.337 OA 
BRANCH  13  16
HETATM   16  C   UNL     1     -11.560  13.066  63.559  1.00  0.00    -0.468 C  
BRANCH  16  17
HETATM   17  C   UNL     1     -12.071  13.900  64.726  1.00  0.00    -0.443 C  
BRANCH  17  18
HETATM   18  C   UNL     1     -11.268  15.189  64.953  1.00  0.00    -0.424 C  
BRANCH  18  19
HETATM   19  C   UNL     1     -11.196  15.687  66.403  1.00  0.00    -0.038 C  
BRANCH  19  20
HETATM   20  C   UNL     1      -9.847  16.209  66.819  1.00  0.00    -0.255 C  
HETATM   21  C   UNL     1      -9.556  17.476  67.164  1.00  0.00    -0.262 C  
HETATM   22  C   UNL     1     -10.545  18.600  67.352  1.00  0.00    -0.490 C  
HETATM   23  C   UNL     1     -10.732  19.409  66.071  1.00  0.00    -0.512 C  
HETATM   24  C   UNL     1     -10.095  19.502  68.499  1.00  0.00    -0.543 C  
ENDBRANCH  19  20
ENDBRANCH  18  19
ENDBRANCH  17  18
ENDBRANCH  16  17
ENDBRANCH  13  16
ENDBRANCH  11  12
ENDBRANCH   9  11
ENDBRANCH   2   3
TORSDOF 8
ENDMDL
MODEL      157
REMARK 921   NORMALIZED FREE ENERGY PREDICTED BY IDOCK:   -4.49 KCAL/MOL
REMARK 922        TOTAL FREE ENERGY PREDICTED BY IDOCK:   -7.80 KCAL/MOL
REMARK 923 INTER-LIGAND FREE ENERGY PREDICTED BY IDOCK:   -6.77 KCAL/MOL
REMARK 924 INTRA-LIGAND FREE ENERGY PREDICTED BY IDOCK:   -1.03 KCAL/MOL
REMARK 927      BINDING AFFINITY PREDICTED BY RF-SCORE:    0.00 PKD
ROOT
HETATM    1  C   UNL     1     -10.684   9.740  70.782  1.00  0.00    -0.323 C  
HETATM    2  O   UNL     1     -11.888  10.159  70.136  1.00  0.00    -0.256 OA 
ENDROOT
BRANCH   2   3
HETATM    3  C   UNL     1     -12.103  11.511  70.174  1.00  0.00    -0.351 A  
HETATM    4  C   UNL     1     -12.735  12.012  71.312  1.00  0.00    -0.279 A  
HETATM    5  O   UNL     1     -13.112  11.169  72.321  1.00  0.00    -0.535 OA 
HETATM    6  C   UNL     1     -13.033  13.367  71.440  1.00  0.00    -0.412 A  
HETATM    7  C   UNL     1     -12.694  14.237  70.403  1.00  0.00    -0.355 A  
HETATM    8  H   UNL     1     -13.542  11.510  73.096  1.00  0.00     0.000 HD 
HETATM    9  C   UNL     1     -12.039  13.763  69.260  1.00  0.00    -0.374 A  
HETATM   10  C   UNL     1     -11.724  12.397  69.165  1.00  0.00    -0.376 A  
BRANCH   9  11
HETATM   11  C   UNL     1     -11.739  14.666  68.093  1.00  0.00    -0.330 C  
BRANCH  11  12
HETATM   12  N   UNL     1     -11.237  13.936  66.967  1.00  0.00    -0.304 N  
HETATM   13  C   UNL     1     -12.004  13.718  65.847  1.00  0.00    -0.406 C  
HETATM   14  H   UNL     1     -10.286  13.568  66.997  1.00  0.00     0.000 HD 
HETATM   15  O   UNL     1     -13.142  14.126  65.705  1.00  0.00    -0.617 OA 
BRANCH  13  16
HETATM   16  C   UNL     1     -11.307  12.840  64.843  1.00  0.00    -0.341 C  
BRANCH  16  17
HETATM   17  C   UNL     1     -10.838  11.512  65.423  1.00  0.00    -0.318 C  
BRANCH  17  18
HETATM   18  C   UNL     1      -9.331  11.471  65.714  1.00  0.00    -0.238 C  
BRANCH  18  19
HETATM   19  C   UNL     1      -8.892  10.525  66.840  1.00  0.00    -0.143 C  
BRANCH  19  20
HETATM   20  C   UNL     1      -9.834   9.379  67.095  1.00  0.00    -0.242 C  
HETATM   21  C   UNL     1      -9.591   8.079  66.847  1.00  0.00    -0.265 C  
HETATM   22  C   UNL     1      -8.276   7.485  66.407  1.00  0.00    -0.122 C  
HETATM   23  C   UNL     1      -8.181   7.386  64.886  1.00  0.00    -0.080 C  
HETATM   24  C   UNL     1      -8.084   6.113  67.049  1.00  0.00    -0.106 C  
ENDBRANCH  19  20
ENDBRANCH  18  19
ENDBRANCH  17  18
ENDBRANCH  16  17
ENDBRANCH  13  16
ENDBRANCH  11  12
ENDBRANCH   9  11
ENDBRANCH   2   3
TORSDOF 8
ENDMDL
MODEL      158
REMARK 921   NORMALIZED FREE ENERGY PREDICTED BY IDOCK:   -4.49 KCAL/MOL
REMARK 922        TOTAL FREE ENERGY PREDICTED BY IDOCK:   -7.80 KCAL/MOL
REMARK 923 INTER-LIGAND FREE ENERGY PREDICTED BY IDOCK:   -6.68 KCAL/MOL
REMARK 924 INTRA-LIGAND FREE ENERGY PREDICTED BY IDOCK:   -1.12 KCAL/MOL
REMARK 927      BINDING AFFINITY PREDICTED BY RF-SCORE:    0.00 PKD
ROOT
HETATM    1  C   UNL     1     -10.917   6.299  67.474  1.00  0.00    -0.350 C  
HETATM    2  O   UNL     1     -10.670   6.302  68.881  1.00  0.00    -0.234 OA 
ENDROOT
BRANCH   2   3
HETATM    3  C   UNL     1     -10.639   7.551  69.442  1.00  0.00    -0.223 A  
HETATM    4  C   UNL     1     -11.396   7.738  70.598  1.00  0.00    -0.264 A  
HETATM    5  O   UNL     1     -12.125   6.705  71.120  1.00  0.00    -0.360 OA 
HETATM    6  C   UNL     1     -11.463   8.977  71.230  1.00  0.00    -0.390 A  
HETATM    7  C   UNL     1     -10.760  10.054  70.689  1.00  0.00    -0.325 A  
HETATM    8  H   UNL     1     -12.641   6.831  71.907  1.00  0.00     0.000 HD 
HETATM    9  C   UNL     1      -9.974   9.888  69.542  1.00  0.00    -0.240 A  
HETATM   10  C   UNL     1      -9.900   8.622  68.937  1.00  0.00    -0.184 A  
BRANCH   9  11
HETATM   11  C   UNL     1      -9.274  11.051  68.892  1.00  0.00    -0.129 C  
BRANCH  11  12
HETATM   12  N   UNL     1     -10.193  12.079  68.502  1.00  0.00    -0.220 N  
HETATM   13  C   UNL     1      -9.793  13.159  67.751  1.00  0.00    -0.228 C  
HETATM   14  H   UNL     1     -11.170  12.007  68.788  1.00  0.00     0.000 HD 
HETATM   15  O   UNL     1      -8.657  13.330  67.347  1.00  0.00    -0.183 OA 
BRANCH  13  16
HETATM   16  C   UNL     1     -10.902  14.157  67.555  1.00  0.00    -0.280 C  
BRANCH  16  17
HETATM   17  C   UNL     1     -12.249  13.514  67.256  1.00  0.00    -0.305 C  
BRANCH  17  18
HETATM   18  C   UNL     1     -12.689  13.669  65.793  1.00  0.00    -0.470 C  
BRANCH  18  19
HETATM   19  C   UNL     1     -12.212  12.573  64.830  1.00  0.00    -0.534 C  
BRANCH  19  20
HETATM   20  C   UNL     1     -11.091  12.989  63.915  1.00  0.00    -0.411 C  
HETATM   21  C   UNL     1     -10.076  12.212  63.497  1.00  0.00    -0.410 C  
HETATM   22  C   UNL     1      -9.931  10.728  63.732  1.00  0.00    -0.411 C  
HETATM   23  C   UNL     1      -9.119  10.431  64.990  1.00  0.00    -0.237 C  
HETATM   24  C   UNL     1      -9.295  10.067  62.511  1.00  0.00    -0.297 C  
ENDBRANCH  19  20
ENDBRANCH  18  19
ENDBRANCH  17  18
ENDBRANCH  16  17
ENDBRANCH  13  16
ENDBRANCH  11  12
ENDBRANCH   9  11
ENDBRANCH   2   3
TORSDOF 8
ENDMDL
MODEL      159
REMARK 921   NORMALIZED FREE ENERGY PREDICTED BY IDOCK:   -4.48 KCAL/MOL
REMARK 922        TOTAL FREE ENERGY PREDICTED BY IDOCK:   -7.79 KCAL/MOL
REMARK 923 INTER-LIGAND FREE ENERGY PREDICTED BY IDOCK:   -7.17 KCAL/MOL
REMARK 924 INTRA-LIGAND FREE ENERGY PREDICTED BY IDOCK:   -0.62 KCAL/MOL
REMARK 927      BINDING AFFINITY PREDICTED BY RF-SCORE:    0.00 PKD
ROOT
HETATM    1  C   UNL     1      -9.006  18.455  68.472  1.00  0.00    -0.315 C  
HETATM    2  O   UNL     1      -8.841  17.206  67.799  1.00  0.00    -0.219 OA 
ENDROOT
BRANCH   2   3
HETATM    3  C   UNL     1      -9.882  16.333  67.976  1.00  0.00    -0.236 A  
HETATM    4  C   UNL     1     -10.457  15.803  66.820  1.00  0.00    -0.305 A  
HETATM    5  O   UNL     1      -9.984  16.160  65.588  1.00  0.00    -0.386 OA 
HETATM    6  C   UNL     1     -11.542  14.932  66.883  1.00  0.00    -0.286 A  
HETATM    7  C   UNL     1     -12.065  14.590  68.130  1.00  0.00    -0.232 A  
HETATM    8  H   UNL     1     -10.375  15.799  64.801  1.00  0.00     0.000 HD 
HETATM    9  C   UNL     1     -11.492  15.090  69.306  1.00  0.00    -0.326 A  
HETATM   10  C   UNL     1     -10.381  15.945  69.219  1.00  0.00    -0.249 A  
BRANCH   9  11
HETATM   11  C   UNL     1     -12.090  14.802  70.658  1.00  0.00    -0.310 C  
BRANCH  11  12
HETATM   12  N   UNL     1     -12.322  13.402  70.854  1.00  0.00    -0.384 N  
HETATM   13  C   UNL     1     -13.172  12.941  71.831  1.00  0.00    -0.423 C  
HETATM   14  H   UNL     1     -11.845  12.730  70.253  1.00  0.00     0.000 HD 
HETATM   15  O   UNL     1     -13.800  13.659  72.589  1.00  0.00    -0.715 OA 
BRANCH  13  16
HETATM   16  C   UNL     1     -13.176  11.439  71.919  1.00  0.00    -0.485 C  
BRANCH  16  17
HETATM   17  C   UNL     1     -12.140  10.778  71.020  1.00  0.00    -0.452 C  
BRANCH  17  18
HETATM   18  C   UNL     1     -12.081   9.251  71.176  1.00  0.00    -0.389 C  
BRANCH  18  19
HETATM   19  C   UNL     1     -10.905   8.708  71.999  1.00  0.00    -0.430 C  
BRANCH  19  20
HETATM   20  C   UNL     1      -9.546   9.085  71.471  1.00  0.00    -0.340 C  
HETATM   21  C   UNL     1      -8.363   8.640  71.931  1.00  0.00    -0.189 C  
HETATM   22  C   UNL     1      -8.155   7.560  72.964  1.00  0.00    -0.141 C  
HETATM   23  C   UNL     1      -8.038   8.138  74.372  1.00  0.00    -0.291 C  
HETATM   24  C   UNL     1      -6.918   6.736  72.614  1.00  0.00    -0.071 C  
ENDBRANCH  19  20
ENDBRANCH  18  19
ENDBRANCH  17  18
ENDBRANCH  16  17
ENDBRANCH  13  16
ENDBRANCH  11  12
ENDBRANCH   9  11
ENDBRANCH   2   3
TORSDOF 8
ENDMDL
MODEL      160
REMARK 921   NORMALIZED FREE ENERGY PREDICTED BY IDOCK:   -4.48 KCAL/MOL
REMARK 922        TOTAL FREE ENERGY PREDICTED BY IDOCK:   -7.79 KCAL/MOL
REMARK 923 INTER-LIGAND FREE ENERGY PREDICTED BY IDOCK:   -6.21 KCAL/MOL
REMARK 924 INTRA-LIGAND FREE ENERGY PREDICTED BY IDOCK:   -1.58 KCAL/MOL
REMARK 927      BINDING AFFINITY PREDICTED BY RF-SCORE:    0.00 PKD
ROOT
HETATM    1  C   UNL     1     -10.465  19.590  67.674  1.00  0.00    -0.467 C  
HETATM    2  O   UNL     1     -10.009  18.847  66.542  1.00  0.00    -0.338 OA 
ENDROOT
BRANCH   2   3
HETATM    3  C   UNL     1      -9.527  17.601  66.847  1.00  0.00    -0.276 A  
HETATM    4  C   UNL     1      -8.269  17.276  66.339  1.00  0.00    -0.282 A  
HETATM    5  O   UNL     1      -7.579  18.177  65.576  1.00  0.00    -0.527 OA 
HETATM    6  C   UNL     1      -7.699  16.025  66.560  1.00  0.00    -0.167 A  
HETATM    7  C   UNL     1      -8.406  15.077  67.300  1.00  0.00    -0.228 A  
HETATM    8  H   UNL     1      -6.722  17.955  65.231  1.00  0.00     0.000 HD 
HETATM    9  C   UNL     1      -9.661  15.386  67.840  1.00  0.00    -0.206 A  
HETATM   10  C   UNL     1     -10.205  16.665  67.628  1.00  0.00    -0.285 A  
BRANCH   9  11
HETATM   11  C   UNL     1     -10.480  14.355  68.571  1.00  0.00    -0.254 C  
BRANCH  11  12
HETATM   12  N   UNL     1     -10.642  13.158  67.801  1.00  0.00    -0.230 N  
HETATM   13  C   UNL     1      -9.969  12.000  68.115  1.00  0.00    -0.203 C  
HETATM   14  H   UNL     1     -11.273  13.163  67.000  1.00  0.00     0.000 HD 
HETATM   15  O   UNL     1      -9.207  11.885  69.058  1.00  0.00     0.078 OA 
BRANCH  13  16
HETATM   16  C   UNL     1     -10.213  10.909  67.108  1.00  0.00    -0.249 C  
BRANCH  16  17
HETATM   17  C   UNL     1      -9.150  10.841  66.021  1.00  0.00    -0.204 C  
BRANCH  17  18
HETATM   18  C   UNL     1      -9.690  11.159  64.618  1.00  0.00    -0.308 C  
BRANCH  18  19
HETATM   19  C   UNL     1     -11.217  11.120  64.464  1.00  0.00    -0.064 C  
BRANCH  19  20
HETATM   20  C   UNL     1     -11.762  12.038  63.402  1.00  0.00    -0.519 C  
HETATM   21  C   UNL     1     -12.072  13.337  63.558  1.00  0.00    -0.550 C  
HETATM   22  C   UNL     1     -11.798  14.182  64.777  1.00  0.00    -0.425 C  
HETATM   23  C   UNL     1     -12.985  14.191  65.738  1.00  0.00    -0.235 C  
HETATM   24  C   UNL     1     -11.435  15.604  64.355  1.00  0.00    -0.266 C  
ENDBRANCH  19  20
ENDBRANCH  18  19
ENDBRANCH  17  18
ENDBRANCH  16  17
ENDBRANCH  13  16
ENDBRANCH  11  12
ENDBRANCH   9  11
ENDBRANCH   2   3
TORSDOF 8
ENDMDL
MODEL      161
REMARK 921   NORMALIZED FREE ENERGY PREDICTED BY IDOCK:   -4.47 KCAL/MOL
REMARK 922        TOTAL FREE ENERGY PREDICTED BY IDOCK:   -7.78 KCAL/MOL
REMARK 923 INTER-LIGAND FREE ENERGY PREDICTED BY IDOCK:   -6.44 KCAL/MOL
REMARK 924 INTRA-LIGAND FREE ENERGY PREDICTED BY IDOCK:   -1.34 KCAL/MOL
REMARK 927      BINDING AFFINITY PREDICTED BY RF-SCORE:    0.00 PKD
ROOT
HETATM    1  C   UNL     1     -10.895   6.930  66.989  1.00  0.00    -0.366 C  
HETATM    2  O   UNL     1      -9.528   7.341  67.051  1.00  0.00    -0.142 OA 
ENDROOT
BRANCH   2   3
HETATM    3  C   UNL     1      -9.324   8.658  66.733  1.00  0.00    -0.179 A  
HETATM    4  C   UNL     1      -8.567   9.408  67.633  1.00  0.00    -0.116 A  
HETATM    5  O   UNL     1      -8.069   8.829  68.768  1.00  0.00    -0.111 OA 
HETATM    6  C   UNL     1      -8.327  10.764  67.425  1.00  0.00    -0.119 A  
HETATM    7  C   UNL     1      -8.861  11.383  66.295  1.00  0.00    -0.196 A  
HETATM    8  H   UNL     1      -7.553   9.339  69.380  1.00  0.00     0.000 HD 
HETATM    9  C   UNL     1      -9.606  10.647  65.365  1.00  0.00    -0.282 A  
HETATM   10  C   UNL     1      -9.812   9.274  65.581  1.00  0.00    -0.237 A  
BRANCH   9  11
HETATM   11  C   UNL     1     -10.264  11.308  64.183  1.00  0.00    -0.335 C  
BRANCH  11  12
HETATM   12  N   UNL     1     -10.426  12.718  64.379  1.00  0.00    -0.368 N  
HETATM   13  C   UNL     1     -11.580  13.246  64.907  1.00  0.00    -0.325 C  
HETATM   14  H   UNL     1      -9.665  13.347  64.121  1.00  0.00     0.000 HD 
HETATM   15  O   UNL     1     -12.538  12.583  65.260  1.00  0.00    -0.645 OA 
BRANCH  13  16
HETATM   16  C   UNL     1     -11.564  14.751  64.920  1.00  0.00    -0.401 C  
BRANCH  16  17
HETATM   17  C   UNL     1     -10.303  15.336  65.543  1.00  0.00    -0.408 C  
BRANCH  17  18
HETATM   18  C   UNL     1      -9.870  14.620  66.831  1.00  0.00    -0.252 C  
BRANCH  18  19
HETATM   19  C   UNL     1     -10.135  15.377  68.139  1.00  0.00    -0.222 C  
BRANCH  19  20
HETATM   20  C   UNL     1     -11.584  15.438  68.543  1.00  0.00    -0.373 C  
HETATM   21  C   UNL     1     -12.284  14.459  69.144  1.00  0.00    -0.255 C  
HETATM   22  C   UNL     1     -11.729  13.160  69.674  1.00  0.00    -0.370 C  
HETATM   23  C   UNL     1     -11.814  12.044  68.636  1.00  0.00    -0.366 C  
HETATM   24  C   UNL     1     -12.462  12.764  70.954  1.00  0.00    -0.373 C  
ENDBRANCH  19  20
ENDBRANCH  18  19
ENDBRANCH  17  18
ENDBRANCH  16  17
ENDBRANCH  13  16
ENDBRANCH  11  12
ENDBRANCH   9  11
ENDBRANCH   2   3
TORSDOF 8
ENDMDL
MODEL      162
REMARK 921   NORMALIZED FREE ENERGY PREDICTED BY IDOCK:   -4.47 KCAL/MOL
REMARK 922        TOTAL FREE ENERGY PREDICTED BY IDOCK:   -7.78 KCAL/MOL
REMARK 923 INTER-LIGAND FREE ENERGY PREDICTED BY IDOCK:   -6.88 KCAL/MOL
REMARK 924 INTRA-LIGAND FREE ENERGY PREDICTED BY IDOCK:   -0.90 KCAL/MOL
REMARK 927      BINDING AFFINITY PREDICTED BY RF-SCORE:    0.00 PKD
ROOT
HETATM    1  C   UNL     1     -11.635  15.723  64.258  1.00  0.00    -0.191 C  
HETATM    2  O   UNL     1     -11.169  17.067  64.386  1.00  0.00    -1.167 OA 
ENDROOT
BRANCH   2   3
HETATM    3  C   UNL     1     -10.715  17.385  65.640  1.00  0.00    -0.111 A  
HETATM    4  C   UNL     1     -10.601  18.743  65.938  1.00  0.00    -0.352 A  
HETATM    5  O   UNL     1     -10.932  19.685  65.003  1.00  0.00    -0.320 OA 
HETATM    6  C   UNL     1     -10.118  19.177  67.169  1.00  0.00    -0.457 A  
HETATM    7  C   UNL     1      -9.735  18.231  68.121  1.00  0.00    -0.341 A  
HETATM    8  H   UNL     1     -10.855  20.609  65.206  1.00  0.00     0.000 HD 
HETATM    9  C   UNL     1      -9.860  16.862  67.855  1.00  0.00    -0.263 A  
HETATM   10  C   UNL     1     -10.376  16.447  66.615  1.00  0.00    -0.292 A  
BRANCH   9  11
HETATM   11  C   UNL     1      -9.377  15.822  68.831  1.00  0.00    -0.228 C  
BRANCH  11  12
HETATM   12  N   UNL     1     -10.459  15.066  69.387  1.00  0.00    -0.245 N  
HETATM   13  C   UNL     1     -10.774  13.810  68.925  1.00  0.00    -0.227 C  
HETATM   14  H   UNL     1     -11.009  15.469  70.146  1.00  0.00     0.000 HD 
HETATM   15  O   UNL     1     -10.172  13.235  68.037  1.00  0.00    -0.227 OA 
BRANCH  13  16
HETATM   16  C   UNL     1     -12.009  13.255  69.584  1.00  0.00    -0.376 C  
BRANCH  16  17
HETATM   17  C   UNL     1     -12.153  11.748  69.425  1.00  0.00    -0.301 C  
BRANCH  17  18
HETATM   18  C   UNL     1     -11.816  10.964  70.703  1.00  0.00    -0.453 C  
BRANCH  18  19
HETATM   19  C   UNL     1     -11.409   9.499  70.501  1.00  0.00    -0.343 C  
BRANCH  19  20
HETATM   20  C   UNL     1      -9.925   9.249  70.553  1.00  0.00    -0.307 C  
HETATM   21  C   UNL     1      -9.077   9.277  69.510  1.00  0.00    -0.163 C  
HETATM   22  C   UNL     1      -9.405   9.712  68.103  1.00  0.00    -0.140 C  
HETATM   23  C   UNL     1      -9.819   8.531  67.228  1.00  0.00    -0.259 C  
HETATM   24  C   UNL     1      -8.212  10.444  67.493  1.00  0.00    -0.114 C  
ENDBRANCH  19  20
ENDBRANCH  18  19
ENDBRANCH  17  18
ENDBRANCH  16  17
ENDBRANCH  13  16
ENDBRANCH  11  12
ENDBRANCH   9  11
ENDBRANCH   2   3
TORSDOF 8
ENDMDL
MODEL      163
REMARK 921   NORMALIZED FREE ENERGY PREDICTED BY IDOCK:   -4.47 KCAL/MOL
REMARK 922        TOTAL FREE ENERGY PREDICTED BY IDOCK:   -7.78 KCAL/MOL
REMARK 923 INTER-LIGAND FREE ENERGY PREDICTED BY IDOCK:   -6.71 KCAL/MOL
REMARK 924 INTRA-LIGAND FREE ENERGY PREDICTED BY IDOCK:   -1.06 KCAL/MOL
REMARK 927      BINDING AFFINITY PREDICTED BY RF-SCORE:    0.00 PKD
ROOT
HETATM    1  C   UNL     1     -14.178   8.644  72.049  1.00  0.00    -0.443 C  
HETATM    2  O   UNL     1     -13.658   9.865  72.576  1.00  0.00    -0.317 OA 
ENDROOT
BRANCH   2   3
HETATM    3  C   UNL     1     -12.985  10.630  71.660  1.00  0.00    -0.477 A  
HETATM    4  C   UNL     1     -13.194  12.008  71.721  1.00  0.00    -0.317 A  
HETATM    5  O   UNL     1     -14.036  12.537  72.659  1.00  0.00    -0.591 OA 
HETATM    6  C   UNL     1     -12.586  12.874  70.816  1.00  0.00    -0.314 A  
HETATM    7  C   UNL     1     -11.756  12.349  69.825  1.00  0.00    -0.361 A  
HETATM    8  H   UNL     1     -14.178  13.476  72.701  1.00  0.00     0.000 HD 
HETATM    9  C   UNL     1     -11.512  10.972  69.756  1.00  0.00    -0.387 A  
HETATM   10  C   UNL     1     -12.115  10.119  70.697  1.00  0.00    -0.411 A  
BRANCH   9  11
HETATM   11  C   UNL     1     -10.690  10.372  68.647  1.00  0.00    -0.218 C  
BRANCH  11  12
HETATM   12  N   UNL     1     -11.007   8.992  68.431  1.00  0.00    -0.462 N  
HETATM   13  C   UNL     1     -10.526   8.301  67.343  1.00  0.00    -0.283 C  
HETATM   14  H   UNL     1     -11.605   8.508  69.101  1.00  0.00     0.000 HD 
HETATM   15  O   UNL     1      -9.795   8.780  66.496  1.00  0.00    -0.235 OA 
BRANCH  13  16
HETATM   16  C   UNL     1     -11.076   6.902  67.269  1.00  0.00    -0.355 C  
BRANCH  16  17
HETATM   17  C   UNL     1     -10.741   6.056  68.489  1.00  0.00    -0.354 C  
BRANCH  17  18
HETATM   18  C   UNL     1      -9.232   5.875  68.712  1.00  0.00    -0.120 C  
BRANCH  18  19
HETATM   19  C   UNL     1      -8.801   5.566  70.152  1.00  0.00    -0.147 C  
BRANCH  19  20
HETATM   20  C   UNL     1      -8.008   6.660  70.816  1.00  0.00    -0.111 C  
HETATM   21  C   UNL     1      -8.230   7.172  72.040  1.00  0.00    -0.102 C  
HETATM   22  C   UNL     1      -9.216   6.656  73.059  1.00  0.00    -0.144 C  
HETATM   23  C   UNL     1     -10.564   7.365  72.951  1.00  0.00    -0.370 C  
HETATM   24  C   UNL     1      -8.639   6.806  74.465  1.00  0.00    -0.195 C  
ENDBRANCH  19  20
ENDBRANCH  18  19
ENDBRANCH  17  18
ENDBRANCH  16  17
ENDBRANCH  13  16
ENDBRANCH  11  12
ENDBRANCH   9  11
ENDBRANCH   2   3
TORSDOF 8
ENDMDL
MODEL      164
REMARK 921   NORMALIZED FREE ENERGY PREDICTED BY IDOCK:   -4.47 KCAL/MOL
REMARK 922        TOTAL FREE ENERGY PREDICTED BY IDOCK:   -7.77 KCAL/MOL
REMARK 923 INTER-LIGAND FREE ENERGY PREDICTED BY IDOCK:   -6.93 KCAL/MOL
REMARK 924 INTRA-LIGAND FREE ENERGY PREDICTED BY IDOCK:   -0.84 KCAL/MOL
REMARK 927      BINDING AFFINITY PREDICTED BY RF-SCORE:    0.00 PKD
ROOT
HETATM    1  C   UNL     1     -12.449  12.824  64.342  1.00  0.00    -0.399 C  
HETATM    2  O   UNL     1     -11.200  13.041  65.001  1.00  0.00    -0.288 OA 
ENDROOT
BRANCH   2   3
HETATM    3  C   UNL     1     -11.288  13.823  66.123  1.00  0.00    -0.314 A  
HETATM    4  C   UNL     1     -10.934  15.164  65.978  1.00  0.00    -0.332 A  
HETATM    5  O   UNL     1     -10.522  15.643  64.765  1.00  0.00    -0.568 OA 
HETATM    6  C   UNL     1     -10.954  16.041  67.061  1.00  0.00    -0.154 A  
HETATM    7  C   UNL     1     -11.330  15.561  68.316  1.00  0.00    -0.360 A  
HETATM    8  H   UNL     1     -10.282  16.557  64.667  1.00  0.00     0.000 HD 
HETATM    9  C   UNL     1     -11.711  14.224  68.483  1.00  0.00    -0.376 A  
HETATM   10  C   UNL     1     -11.710  13.364  67.371  1.00  0.00    -0.415 A  
BRANCH   9  11
HETATM   11  C   UNL     1     -12.040  13.662  69.840  1.00  0.00    -0.341 C  
BRANCH  11  12
HETATM   12  N   UNL     1     -11.734  12.265  69.930  1.00  0.00    -0.463 N  
HETATM   13  C   UNL     1     -12.324  11.456  70.873  1.00  0.00    -0.381 C  
HETATM   14  H   UNL     1     -11.062  11.861  69.279  1.00  0.00     0.000 HD 
HETATM   15  O   UNL     1     -13.148  11.836  71.684  1.00  0.00    -0.441 OA 
BRANCH  13  16
HETATM   16  C   UNL     1     -11.771  10.057  70.847  1.00  0.00    -0.462 C  
BRANCH  16  17
HETATM   17  C   UNL     1     -10.435   9.948  70.124  1.00  0.00    -0.339 C  
BRANCH  17  18
HETATM   18  C   UNL     1     -10.445   8.933  68.972  1.00  0.00    -0.231 C  
BRANCH  18  19
HETATM   19  C   UNL     1      -9.284   9.041  67.974  1.00  0.00    -0.143 C  
BRANCH  19  20
HETATM   20  C   UNL     1      -8.276   7.926  68.064  1.00  0.00    -0.127 C  
HETATM   21  C   UNL     1      -8.342   6.742  67.430  1.00  0.00    -0.122 C  
HETATM   22  C   UNL     1      -9.353   6.344  66.384  1.00  0.00    -0.176 C  
HETATM   23  C   UNL     1     -10.556   5.633  67.001  1.00  0.00    -0.358 C  
HETATM   24  C   UNL     1      -8.691   5.462  65.327  1.00  0.00    -0.145 C  
ENDBRANCH  19  20
ENDBRANCH  18  19
ENDBRANCH  17  18
ENDBRANCH  16  17
ENDBRANCH  13  16
ENDBRANCH  11  12
ENDBRANCH   9  11
ENDBRANCH   2   3
TORSDOF 8
ENDMDL
MODEL      165
REMARK 921   NORMALIZED FREE ENERGY PREDICTED BY IDOCK:   -4.47 KCAL/MOL
REMARK 922        TOTAL FREE ENERGY PREDICTED BY IDOCK:   -7.77 KCAL/MOL
REMARK 923 INTER-LIGAND FREE ENERGY PREDICTED BY IDOCK:   -6.89 KCAL/MOL
REMARK 924 INTRA-LIGAND FREE ENERGY PREDICTED BY IDOCK:   -0.88 KCAL/MOL
REMARK 927      BINDING AFFINITY PREDICTED BY RF-SCORE:    0.00 PKD
ROOT
HETATM    1  C   UNL     1      -5.833  17.777  67.820  1.00  0.00    -0.146 C  
HETATM    2  O   UNL     1      -6.394  18.945  67.219  1.00  0.00    -0.186 OA 
ENDROOT
BRANCH   2   3
HETATM    3  C   UNL     1      -7.760  18.920  67.116  1.00  0.00    -0.235 A  
HETATM    4  C   UNL     1      -8.408  20.156  67.089  1.00  0.00    -0.337 A  
HETATM    5  O   UNL     1      -7.686  21.315  67.166  1.00  0.00    -0.732 OA 
HETATM    6  C   UNL     1      -9.796  20.246  67.020  1.00  0.00    -0.607 A  
HETATM    7  C   UNL     1     -10.551  19.074  66.983  1.00  0.00    -0.543 A  
HETATM    8  H   UNL     1      -8.127  22.156  67.147  1.00  0.00     0.000 HD 
HETATM    9  C   UNL     1      -9.925  17.821  66.986  1.00  0.00    -0.322 A  
HETATM   10  C   UNL     1      -8.522  17.755  67.028  1.00  0.00    -0.245 A  
BRANCH   9  11
HETATM   11  C   UNL     1     -10.719  16.543  67.032  1.00  0.00    -0.191 C  
BRANCH  11  12
HETATM   12  N   UNL     1     -11.213  16.266  68.348  1.00  0.00    -0.363 N  
HETATM   13  C   UNL     1     -10.656  15.287  69.137  1.00  0.00    -0.250 C  
HETATM   14  H   UNL     1     -11.997  16.809  68.709  1.00  0.00     0.000 HD 
HETATM   15  O   UNL     1      -9.711  14.596  68.806  1.00  0.00    -0.215 OA 
BRANCH  13  16
HETATM   16  C   UNL     1     -11.405  15.105  70.430  1.00  0.00    -0.323 C  
BRANCH  16  17
HETATM   17  C   UNL     1     -12.603  14.173  70.308  1.00  0.00    -0.367 C  
BRANCH  17  18
HETATM   18  C   UNL     1     -12.275  12.711  70.646  1.00  0.00    -0.373 C  
BRANCH  18  19
HETATM   19  C   UNL     1     -12.121  11.765  69.448  1.00  0.00    -0.301 C  
BRANCH  19  20
HETATM   20  C   UNL     1     -10.950  10.824  69.541  1.00  0.00    -0.317 C  
HETATM   21  C   UNL     1      -9.971  10.679  68.629  1.00  0.00    -0.188 C  
HETATM   22  C   UNL     1      -9.760  11.533  67.403  1.00  0.00    -0.191 C  
HETATM   23  C   UNL     1     -10.449  10.940  66.176  1.00  0.00    -0.290 C  
HETATM   24  C   UNL     1      -8.265  11.714  67.146  1.00  0.00    -0.165 C  
ENDBRANCH  19  20
ENDBRANCH  18  19
ENDBRANCH  17  18
ENDBRANCH  16  17
ENDBRANCH  13  16
ENDBRANCH  11  12
ENDBRANCH   9  11
ENDBRANCH   2   3
TORSDOF 8
ENDMDL
MODEL      166
REMARK 921   NORMALIZED FREE ENERGY PREDICTED BY IDOCK:   -4.46 KCAL/MOL
REMARK 922        TOTAL FREE ENERGY PREDICTED BY IDOCK:   -7.76 KCAL/MOL
REMARK 923 INTER-LIGAND FREE ENERGY PREDICTED BY IDOCK:   -6.81 KCAL/MOL
REMARK 924 INTRA-LIGAND FREE ENERGY PREDICTED BY IDOCK:   -0.95 KCAL/MOL
REMARK 927      BINDING AFFINITY PREDICTED BY RF-SCORE:    0.00 PKD
ROOT
HETATM    1  C   UNL     1      -7.701   3.118  68.925  1.00  0.00    -0.050 C  
HETATM    2  O   UNL     1      -8.902   3.041  68.154  1.00  0.00    -0.098 OA 
ENDROOT
BRANCH   2   3
HETATM    3  C   UNL     1      -9.658   4.183  68.180  1.00  0.00    -0.134 A  
HETATM    4  C   UNL     1     -10.029   4.715  66.945  1.00  0.00    -0.211 A  
HETATM    5  O   UNL     1      -9.639   4.105  65.785  1.00  0.00    -0.162 OA 
HETATM    6  C   UNL     1     -10.769   5.891  66.855  1.00  0.00    -0.395 A  
HETATM    7  C   UNL     1     -11.140   6.552  68.027  1.00  0.00    -0.332 A  
HETATM    8  H   UNL     1      -9.892   4.467  64.944  1.00  0.00     0.000 HD 
HETATM    9  C   UNL     1     -10.800   6.027  69.280  1.00  0.00    -0.428 A  
HETATM   10  C   UNL     1     -10.077   4.823  69.347  1.00  0.00    -0.241 A  
BRANCH   9  11
HETATM   11  C   UNL     1     -11.115   6.762  70.555  1.00  0.00    -0.298 C  
BRANCH  11  12
HETATM   12  N   UNL     1     -11.356   8.156  70.323  1.00  0.00    -0.429 N  
HETATM   13  C   UNL     1     -11.819   8.984  71.318  1.00  0.00    -0.312 C  
HETATM   14  H   UNL     1     -11.178   8.544  69.396  1.00  0.00     0.000 HD 
HETATM   15  O   UNL     1     -12.047   8.624  72.459  1.00  0.00    -0.374 OA 
BRANCH  13  16
HETATM   16  C   UNL     1     -12.097  10.375  70.816  1.00  0.00    -0.463 C  
BRANCH  16  17
HETATM   17  C   UNL     1     -11.138  10.827  69.724  1.00  0.00    -0.346 C  
BRANCH  17  18
HETATM   18  C   UNL     1     -11.828  11.100  68.379  1.00  0.00    -0.302 C  
BRANCH  18  19
HETATM   19  C   UNL     1     -11.035  11.955  67.382  1.00  0.00    -0.315 C  
BRANCH  19  20
HETATM   20  C   UNL     1     -11.791  13.134  66.830  1.00  0.00    -0.444 C  
HETATM   21  C   UNL     1     -11.991  14.311  67.450  1.00  0.00    -0.426 C  
HETATM   22  C   UNL     1     -11.375  14.749  68.756  1.00  0.00    -0.301 C  
HETATM   23  C   UNL     1     -12.275  14.419  69.945  1.00  0.00    -0.394 C  
HETATM   24  C   UNL     1     -11.068  16.244  68.711  1.00  0.00    -0.355 C  
ENDBRANCH  19  20
ENDBRANCH  18  19
ENDBRANCH  17  18
ENDBRANCH  16  17
ENDBRANCH  13  16
ENDBRANCH  11  12
ENDBRANCH   9  11
ENDBRANCH   2   3
TORSDOF 8
ENDMDL
MODEL      167
REMARK 921   NORMALIZED FREE ENERGY PREDICTED BY IDOCK:   -4.46 KCAL/MOL
REMARK 922        TOTAL FREE ENERGY PREDICTED BY IDOCK:   -7.76 KCAL/MOL
REMARK 923 INTER-LIGAND FREE ENERGY PREDICTED BY IDOCK:   -6.96 KCAL/MOL
REMARK 924 INTRA-LIGAND FREE ENERGY PREDICTED BY IDOCK:   -0.80 KCAL/MOL
REMARK 927      BINDING AFFINITY PREDICTED BY RF-SCORE:    0.00 PKD
ROOT
HETATM    1  C   UNL     1      -7.711  15.304  69.105  1.00  0.00    -0.200 C  
HETATM    2  O   UNL     1      -8.727  16.028  68.408  1.00  0.00    -0.175 OA 
ENDROOT
BRANCH   2   3
HETATM    3  C   UNL     1      -9.383  15.295  67.455  1.00  0.00    -0.199 A  
HETATM    4  C   UNL     1      -9.384  15.812  66.159  1.00  0.00    -0.346 A  
HETATM    5  O   UNL     1      -8.755  16.996  65.888  1.00  0.00    -0.524 OA 
HETATM    6  C   UNL     1     -10.049  15.166  65.120  1.00  0.00    -0.331 A  
HETATM    7  C   UNL     1     -10.733  13.979  65.386  1.00  0.00    -0.344 A  
HETATM    8  H   UNL     1      -8.755  17.348  65.006  1.00  0.00     0.000 HD 
HETATM    9  C   UNL     1     -10.729  13.426  66.673  1.00  0.00    -0.282 A  
HETATM   10  C   UNL     1     -10.027  14.082  67.700  1.00  0.00    -0.237 A  
BRANCH   9  11
HETATM   11  C   UNL     1     -11.527  12.194  67.004  1.00  0.00    -0.350 C  
BRANCH  11  12
HETATM   12  N   UNL     1     -11.866  12.133  68.395  1.00  0.00    -0.329 N  
HETATM   13  C   UNL     1     -11.379  11.141  69.214  1.00  0.00    -0.281 C  
HETATM   14  H   UNL     1     -12.484  12.843  68.787  1.00  0.00     0.000 HD 
HETATM   15  O   UNL     1     -10.625  10.259  68.848  1.00  0.00    -0.195 OA 
BRANCH  13  16
HETATM   16  C   UNL     1     -11.953  11.219  70.603  1.00  0.00    -0.435 C  
BRANCH  16  17
HETATM   17  C   UNL     1     -12.997  10.146  70.886  1.00  0.00    -0.432 C  
BRANCH  17  18
HETATM   18  C   UNL     1     -12.875   9.531  72.288  1.00  0.00    -0.426 C  
BRANCH  18  19
HETATM   19  C   UNL     1     -12.277   8.119  72.348  1.00  0.00    -0.374 C  
BRANCH  19  20
HETATM   20  C   UNL     1     -12.538   7.276  71.129  1.00  0.00    -0.362 C  
HETATM   21  C   UNL     1     -11.627   6.559  70.447  1.00  0.00    -0.470 C  
HETATM   22  C   UNL     1     -10.191   6.329  70.847  1.00  0.00    -0.236 C  
HETATM   23  C   UNL     1      -9.257   7.367  70.228  1.00  0.00    -0.154 C  
HETATM   24  C   UNL     1      -9.761   4.916  70.456  1.00  0.00    -0.274 C  
ENDBRANCH  19  20
ENDBRANCH  18  19
ENDBRANCH  17  18
ENDBRANCH  16  17
ENDBRANCH  13  16
ENDBRANCH  11  12
ENDBRANCH   9  11
ENDBRANCH   2   3
TORSDOF 8
ENDMDL
MODEL      168
REMARK 921   NORMALIZED FREE ENERGY PREDICTED BY IDOCK:   -4.45 KCAL/MOL
REMARK 922        TOTAL FREE ENERGY PREDICTED BY IDOCK:   -7.75 KCAL/MOL
REMARK 923 INTER-LIGAND FREE ENERGY PREDICTED BY IDOCK:   -7.08 KCAL/MOL
REMARK 924 INTRA-LIGAND FREE ENERGY PREDICTED BY IDOCK:   -0.66 KCAL/MOL
REMARK 927      BINDING AFFINITY PREDICTED BY RF-SCORE:    0.00 PKD
ROOT
HETATM    1  C   UNL     1      -9.125  11.004  68.107  1.00  0.00    -0.155 C  
HETATM    2  O   UNL     1     -10.433  11.306  68.595  1.00  0.00    -0.188 OA 
ENDROOT
BRANCH   2   3
HETATM    3  C   UNL     1     -10.819  12.605  68.395  1.00  0.00    -0.245 A  
HETATM    4  C   UNL     1     -11.552  13.204  69.420  1.00  0.00    -0.300 A  
HETATM    5  O   UNL     1     -11.856  12.501  70.553  1.00  0.00    -0.525 OA 
HETATM    6  C   UNL     1     -12.024  14.510  69.308  1.00  0.00    -0.355 A  
HETATM    7  C   UNL     1     -11.761  15.229  68.141  1.00  0.00    -0.297 A  
HETATM    8  H   UNL     1     -12.355  12.909  71.251  1.00  0.00     0.000 HD 
HETATM    9  C   UNL     1     -11.008  14.659  67.107  1.00  0.00    -0.316 A  
HETATM   10  C   UNL     1     -10.519  13.349  67.254  1.00  0.00    -0.248 A  
BRANCH   9  11
HETATM   11  C   UNL     1     -10.782  15.382  65.806  1.00  0.00    -0.351 C  
BRANCH  11  12
HETATM   12  N   UNL     1     -10.925  14.511  64.678  1.00  0.00    -0.566 N  
HETATM   13  C   UNL     1     -12.129  13.926  64.365  1.00  0.00    -0.443 C  
HETATM   14  H   UNL     1     -10.113  14.320  64.091  1.00  0.00     0.000 HD 
HETATM   15  O   UNL     1     -13.159  14.100  64.990  1.00  0.00    -0.728 OA 
BRANCH  13  16
HETATM   16  C   UNL     1     -12.014  12.971  63.207  1.00  0.00    -0.493 C  
BRANCH  16  17
HETATM   17  C   UNL     1     -10.744  12.132  63.240  1.00  0.00    -0.373 C  
BRANCH  17  18
HETATM   18  C   UNL     1     -10.706  11.125  64.399  1.00  0.00    -0.388 C  
BRANCH  18  19
HETATM   19  C   UNL     1      -9.554  10.112  64.368  1.00  0.00    -0.366 C  
BRANCH  19  20
HETATM   20  C   UNL     1      -9.030   9.803  62.990  1.00  0.00    -0.271 C  
HETATM   21  C   UNL     1      -8.251   8.761  62.651  1.00  0.00    -0.194 C  
HETATM   22  C   UNL     1      -7.866   7.606  63.542  1.00  0.00    -0.124 C  
HETATM   23  C   UNL     1      -6.540   7.858  64.256  1.00  0.00    -0.060 C  
HETATM   24  C   UNL     1      -7.803   6.317  62.726  1.00  0.00    -0.099 C  
ENDBRANCH  19  20
ENDBRANCH  18  19
ENDBRANCH  17  18
ENDBRANCH  16  17
ENDBRANCH  13  16
ENDBRANCH  11  12
ENDBRANCH   9  11
ENDBRANCH   2   3
TORSDOF 8
ENDMDL
MODEL      169
REMARK 921   NORMALIZED FREE ENERGY PREDICTED BY IDOCK:   -4.45 KCAL/MOL
REMARK 922        TOTAL FREE ENERGY PREDICTED BY IDOCK:   -7.74 KCAL/MOL
REMARK 923 INTER-LIGAND FREE ENERGY PREDICTED BY IDOCK:   -6.70 KCAL/MOL
REMARK 924 INTRA-LIGAND FREE ENERGY PREDICTED BY IDOCK:   -1.05 KCAL/MOL
REMARK 927      BINDING AFFINITY PREDICTED BY RF-SCORE:    0.00 PKD
ROOT
HETATM    1  C   UNL     1     -10.400   8.375  69.252  1.00  0.00    -0.214 C  
HETATM    2  O   UNL     1     -11.371   9.130  69.978  1.00  0.00    -0.204 OA 
ENDROOT
BRANCH   2   3
HETATM    3  C   UNL     1     -11.486  10.433  69.571  1.00  0.00    -0.246 A  
HETATM    4  C   UNL     1     -12.121  11.310  70.451  1.00  0.00    -0.384 A  
HETATM    5  O   UNL     1     -12.595  10.859  71.652  1.00  0.00    -0.375 OA 
HETATM    6  C   UNL     1     -12.321  12.648  70.124  1.00  0.00    -0.222 A  
HETATM    7  C   UNL     1     -11.881  13.118  68.886  1.00  0.00    -0.361 A  
HETATM    8  H   UNL     1     -13.027  11.456  72.252  1.00  0.00     0.000 HD 
HETATM    9  C   UNL     1     -11.221  12.264  67.993  1.00  0.00    -0.321 A  
HETATM   10  C   UNL     1     -11.006  10.923  68.356  1.00  0.00    -0.288 A  
BRANCH   9  11
HETATM   11  C   UNL     1     -10.813  12.724  66.619  1.00  0.00    -0.264 C  
BRANCH  11  12
HETATM   12  N   UNL     1     -10.111  13.972  66.659  1.00  0.00    -0.270 N  
HETATM   13  C   UNL     1     -10.515  15.053  65.911  1.00  0.00    -0.328 C  
HETATM   14  H   UNL     1      -9.290  14.062  67.258  1.00  0.00     0.000 HD 
HETATM   15  O   UNL     1     -11.487  15.054  65.178  1.00  0.00    -0.360 OA 
BRANCH  13  16
HETATM   16  C   UNL     1      -9.567  16.215  66.032  1.00  0.00    -0.381 C  
BRANCH  16  17
HETATM   17  C   UNL     1     -10.263  17.533  66.343  1.00  0.00    -0.354 C  
BRANCH  17  18
HETATM   18  C   UNL     1     -10.266  17.884  67.838  1.00  0.00    -0.375 C  
BRANCH  18  19
HETATM   19  C   UNL     1      -8.909  17.794  68.549  1.00  0.00    -0.284 C  
BRANCH  19  20
HETATM   20  C   UNL     1      -8.145  19.090  68.604  1.00  0.00    -0.397 C  
HETATM   21  C   UNL     1      -7.268  19.536  67.686  1.00  0.00    -0.273 C  
HETATM   22  C   UNL     1      -6.984  18.908  66.344  1.00  0.00    -0.244 C  
HETATM   23  C   UNL     1      -5.811  17.932  66.413  1.00  0.00    -0.216 C  
HETATM   24  C   UNL     1      -6.719  19.995  65.305  1.00  0.00    -0.335 C  
ENDBRANCH  19  20
ENDBRANCH  18  19
ENDBRANCH  17  18
ENDBRANCH  16  17
ENDBRANCH  13  16
ENDBRANCH  11  12
ENDBRANCH   9  11
ENDBRANCH   2   3
TORSDOF 8
ENDMDL
MODEL      170
REMARK 921   NORMALIZED FREE ENERGY PREDICTED BY IDOCK:   -4.44 KCAL/MOL
REMARK 922        TOTAL FREE ENERGY PREDICTED BY IDOCK:   -7.73 KCAL/MOL
REMARK 923 INTER-LIGAND FREE ENERGY PREDICTED BY IDOCK:   -6.62 KCAL/MOL
REMARK 924 INTRA-LIGAND FREE ENERGY PREDICTED BY IDOCK:   -1.12 KCAL/MOL
REMARK 927      BINDING AFFINITY PREDICTED BY RF-SCORE:    0.00 PKD
ROOT
HETATM    1  C   UNL     1     -10.443   7.916  66.850  1.00  0.00    -0.318 C  
HETATM    2  O   UNL     1      -9.713   8.857  66.060  1.00  0.00    -0.260 OA 
ENDROOT
BRANCH   2   3
HETATM    3  C   UNL     1     -10.180  10.142  66.146  1.00  0.00    -0.215 A  
HETATM    4  C   UNL     1     -10.358  10.824  64.942  1.00  0.00    -0.299 A  
HETATM    5  O   UNL     1     -10.069  10.213  63.753  1.00  0.00    -0.476 OA 
HETATM    6  C   UNL     1     -10.796  12.146  64.915  1.00  0.00    -0.352 A  
HETATM    7  C   UNL     1     -11.055  12.800  66.120  1.00  0.00    -0.322 A  
HETATM    8  H   UNL     1     -10.190  10.678  62.934  1.00  0.00     0.000 HD 
HETATM    9  C   UNL     1     -10.906  12.131  67.341  1.00  0.00    -0.286 A  
HETATM   10  C   UNL     1     -10.490  10.788  67.343  1.00  0.00    -0.268 A  
BRANCH   9  11
HETATM   11  C   UNL     1     -11.099  12.838  68.656  1.00  0.00    -0.266 C  
BRANCH  11  12
HETATM   12  N   UNL     1     -11.768  12.011  69.616  1.00  0.00    -0.327 N  
HETATM   13  C   UNL     1     -12.397  12.546  70.715  1.00  0.00    -0.286 C  
HETATM   14  H   UNL     1     -11.777  11.000  69.481  1.00  0.00     0.000 HD 
HETATM   15  O   UNL     1     -12.457  13.737  70.960  1.00  0.00    -0.349 OA 
BRANCH  13  16
HETATM   16  C   UNL     1     -12.935  11.483  71.635  1.00  0.00    -0.499 C  
BRANCH  16  17
HETATM   17  C   UNL     1     -12.954  10.095  71.009  1.00  0.00    -0.473 C  
BRANCH  17  18
HETATM   18  C   UNL     1     -12.396   9.001  71.932  1.00  0.00    -0.455 C  
BRANCH  18  19
HETATM   19  C   UNL     1     -10.868   8.859  71.954  1.00  0.00    -0.433 C  
BRANCH  19  20
HETATM   20  C   UNL     1     -10.322   7.835  70.994  1.00  0.00    -0.215 C  
HETATM   21  C   UNL     1      -9.124   7.876  70.386  1.00  0.00    -0.154 C  
HETATM   22  C   UNL     1      -8.019   8.869  70.652  1.00  0.00    -0.142 C  
HETATM   23  C   UNL     1      -8.097  10.067  69.709  1.00  0.00    -0.188 C  
HETATM   24  C   UNL     1      -6.661   8.180  70.539  1.00  0.00    -0.037 C  
ENDBRANCH  19  20
ENDBRANCH  18  19
ENDBRANCH  17  18
ENDBRANCH  16  17
ENDBRANCH  13  16
ENDBRANCH  11  12
ENDBRANCH   9  11
ENDBRANCH   2   3
TORSDOF 8
ENDMDL
MODEL      171
REMARK 921   NORMALIZED FREE ENERGY PREDICTED BY IDOCK:   -4.44 KCAL/MOL
REMARK 922        TOTAL FREE ENERGY PREDICTED BY IDOCK:   -7.73 KCAL/MOL
REMARK 923 INTER-LIGAND FREE ENERGY PREDICTED BY IDOCK:   -6.98 KCAL/MOL
REMARK 924 INTRA-LIGAND FREE ENERGY PREDICTED BY IDOCK:   -0.75 KCAL/MOL
REMARK 927      BINDING AFFINITY PREDICTED BY RF-SCORE:    0.00 PKD
ROOT
HETATM    1  C   UNL     1      -6.431  15.599  69.015  1.00  0.00    -0.126 C  
HETATM    2  O   UNL     1      -6.850  16.961  69.126  1.00  0.00    -0.219 OA 
ENDROOT
BRANCH   2   3
HETATM    3  C   UNL     1      -8.142  17.183  68.728  1.00  0.00    -0.252 A  
HETATM    4  C   UNL     1      -8.400  18.398  68.093  1.00  0.00    -0.284 A  
HETATM    5  O   UNL     1      -7.393  19.301  67.895  1.00  0.00    -0.246 OA 
HETATM    6  C   UNL     1      -9.684  18.742  67.678  1.00  0.00    -0.347 A  
HETATM    7  C   UNL     1     -10.733  17.851  67.910  1.00  0.00    -0.328 A  
HETATM    8  H   UNL     1      -7.568  20.128  67.462  1.00  0.00     0.000 HD 
HETATM    9  C   UNL     1     -10.497  16.616  68.525  1.00  0.00    -0.319 A  
HETATM   10  C   UNL     1      -9.188  16.279  68.910  1.00  0.00    -0.249 A  
BRANCH   9  11
HETATM   11  C   UNL     1     -11.623  15.675  68.862  1.00  0.00    -0.383 C  
BRANCH  11  12
HETATM   12  N   UNL     1     -11.305  14.318  68.528  1.00  0.00    -0.266 N  
HETATM   13  C   UNL     1     -11.791  13.722  67.388  1.00  0.00    -0.396 C  
HETATM   14  H   UNL     1     -10.703  13.781  69.153  1.00  0.00     0.000 HD 
HETATM   15  O   UNL     1     -12.502  14.279  66.573  1.00  0.00    -0.428 OA 
BRANCH  13  16
HETATM   16  C   UNL     1     -11.413  12.267  67.303  1.00  0.00    -0.426 C  
BRANCH  16  17
HETATM   17  C   UNL     1     -11.619  11.512  68.609  1.00  0.00    -0.375 C  
BRANCH  17  18
HETATM   18  C   UNL     1     -10.530  10.464  68.886  1.00  0.00    -0.232 C  
BRANCH  18  19
HETATM   19  C   UNL     1     -10.384  10.021  70.348  1.00  0.00    -0.268 C  
BRANCH  19  20
HETATM   20  C   UNL     1     -11.683   9.681  71.031  1.00  0.00    -0.433 C  
HETATM   21  C   UNL     1     -12.101   8.450  71.375  1.00  0.00    -0.337 C  
HETATM   22  C   UNL     1     -11.297   7.177  71.289  1.00  0.00    -0.298 C  
HETATM   23  C   UNL     1     -11.523   6.453  69.963  1.00  0.00    -0.496 C  
HETATM   24  C   UNL     1     -11.637   6.265  72.466  1.00  0.00    -0.273 C  
ENDBRANCH  19  20
ENDBRANCH  18  19
ENDBRANCH  17  18
ENDBRANCH  16  17
ENDBRANCH  13  16
ENDBRANCH  11  12
ENDBRANCH   9  11
ENDBRANCH   2   3
TORSDOF 8
ENDMDL
MODEL      172
REMARK 921   NORMALIZED FREE ENERGY PREDICTED BY IDOCK:   -4.43 KCAL/MOL
REMARK 922        TOTAL FREE ENERGY PREDICTED BY IDOCK:   -7.72 KCAL/MOL
REMARK 923 INTER-LIGAND FREE ENERGY PREDICTED BY IDOCK:   -6.47 KCAL/MOL
REMARK 924 INTRA-LIGAND FREE ENERGY PREDICTED BY IDOCK:   -1.25 KCAL/MOL
REMARK 927      BINDING AFFINITY PREDICTED BY RF-SCORE:    0.00 PKD
ROOT
HETATM    1  C   UNL     1     -12.631  15.590  70.675  1.00  0.00    -0.443 C  
HETATM    2  O   UNL     1     -11.389  16.277  70.517  1.00  0.00    -0.378 OA 
ENDROOT
BRANCH   2   3
HETATM    3  C   UNL     1     -10.733  15.987  69.350  1.00  0.00    -0.294 A  
HETATM    4  C   UNL     1     -10.320  17.074  68.578  1.00  0.00    -0.359 A  
HETATM    5  O   UNL     1     -10.575  18.352  68.993  1.00  0.00    -0.379 OA 
HETATM    6  C   UNL     1      -9.675  16.893  67.357  1.00  0.00    -0.247 A  
HETATM    7  C   UNL     1      -9.444  15.596  66.897  1.00  0.00    -0.245 A  
HETATM    8  H   UNL     1     -10.293  19.091  68.468  1.00  0.00     0.000 HD 
HETATM    9  C   UNL     1      -9.828  14.488  67.662  1.00  0.00    -0.223 A  
HETATM   10  C   UNL     1     -10.453  14.695  68.904  1.00  0.00    -0.248 A  
BRANCH   9  11
HETATM   11  C   UNL     1      -9.666  13.082  67.150  1.00  0.00    -0.230 C  
BRANCH  11  12
HETATM   12  N   UNL     1      -9.843  13.006  65.730  1.00  0.00    -0.403 N  
HETATM   13  C   UNL     1     -10.995  12.503  65.172  1.00  0.00    -0.297 C  
HETATM   14  H   UNL     1      -9.096  13.333  65.118  1.00  0.00     0.000 HD 
HETATM   15  O   UNL     1     -11.949  12.102  65.813  1.00  0.00    -0.536 OA 
BRANCH  13  16
HETATM   16  C   UNL     1     -10.911  12.422  63.671  1.00  0.00    -0.509 C  
BRANCH  16  17
HETATM   17  C   UNL     1     -10.475  11.055  63.163  1.00  0.00    -0.176 C  
BRANCH  17  18
HETATM   18  C   UNL     1      -9.013  11.015  62.695  1.00  0.00    -0.355 C  
BRANCH  18  19
HETATM   19  C   UNL     1      -8.004  10.443  63.700  1.00  0.00    -0.092 C  
BRANCH  19  20
HETATM   20  C   UNL     1      -8.265   9.016  64.104  1.00  0.00    -0.166 C  
HETATM   21  C   UNL     1      -8.714   8.599  65.301  1.00  0.00    -0.200 C  
HETATM   22  C   UNL     1      -9.194   9.476  66.431  1.00  0.00    -0.210 C  
HETATM   23  C   UNL     1      -8.068   9.804  67.410  1.00  0.00    -0.114 C  
HETATM   24  C   UNL     1     -10.359   8.805  67.154  1.00  0.00    -0.364 C  
ENDBRANCH  19  20
ENDBRANCH  18  19
ENDBRANCH  17  18
ENDBRANCH  16  17
ENDBRANCH  13  16
ENDBRANCH  11  12
ENDBRANCH   9  11
ENDBRANCH   2   3
TORSDOF 8
ENDMDL
MODEL      173
REMARK 921   NORMALIZED FREE ENERGY PREDICTED BY IDOCK:   -4.42 KCAL/MOL
REMARK 922        TOTAL FREE ENERGY PREDICTED BY IDOCK:   -7.70 KCAL/MOL
REMARK 923 INTER-LIGAND FREE ENERGY PREDICTED BY IDOCK:   -6.50 KCAL/MOL
REMARK 924 INTRA-LIGAND FREE ENERGY PREDICTED BY IDOCK:   -1.20 KCAL/MOL
REMARK 927      BINDING AFFINITY PREDICTED BY RF-SCORE:    0.00 PKD
ROOT
HETATM    1  C   UNL     1     -14.280   8.756  72.530  1.00  0.00    -0.314 C  
HETATM    2  O   UNL     1     -13.279   9.773  72.616  1.00  0.00    -0.241 OA 
ENDROOT
BRANCH   2   3
HETATM    3  C   UNL     1     -12.401   9.784  71.564  1.00  0.00    -0.405 A  
HETATM    4  C   UNL     1     -12.187  11.014  70.941  1.00  0.00    -0.367 A  
HETATM    5  O   UNL     1     -12.839  12.133  71.381  1.00  0.00    -0.376 OA 
HETATM    6  C   UNL     1     -11.341  11.133  69.842  1.00  0.00    -0.348 A  
HETATM    7  C   UNL     1     -10.700   9.994  69.352  1.00  0.00    -0.258 A  
HETATM    8  H   UNL     1     -12.693  12.970  70.957  1.00  0.00     0.000 HD 
HETATM    9  C   UNL     1     -10.879   8.752  69.973  1.00  0.00    -0.231 A  
HETATM   10  C   UNL     1     -11.717   8.661  71.098  1.00  0.00    -0.334 A  
BRANCH   9  11
HETATM   11  C   UNL     1     -10.266   7.496  69.414  1.00  0.00    -0.204 C  
BRANCH  11  12
HETATM   12  N   UNL     1      -9.566   7.741  68.188  1.00  0.00    -0.149 N  
HETATM   13  C   UNL     1     -10.069   7.332  66.976  1.00  0.00    -0.246 C  
HETATM   14  H   UNL     1      -8.673   8.233  68.216  1.00  0.00     0.000 HD 
HETATM   15  O   UNL     1     -11.130   6.753  66.833  1.00  0.00    -0.397 OA 
BRANCH  13  16
HETATM   16  C   UNL     1      -9.114   7.603  65.844  1.00  0.00    -0.101 C  
BRANCH  16  17
HETATM   17  C   UNL     1      -8.701   9.064  65.739  1.00  0.00    -0.197 C  
BRANCH  17  18
HETATM   18  C   UNL     1      -9.094   9.716  64.405  1.00  0.00    -0.279 C  
BRANCH  18  19
HETATM   19  C   UNL     1     -10.206  10.771  64.478  1.00  0.00    -0.428 C  
BRANCH  19  20
HETATM   20  C   UNL     1     -10.449  11.328  65.855  1.00  0.00    -0.314 C  
HETATM   21  C   UNL     1     -10.998  12.522  66.144  1.00  0.00    -0.318 C  
HETATM   22  C   UNL     1     -11.621  13.480  65.160  1.00  0.00    -0.333 C  
HETATM   23  C   UNL     1     -10.612  14.510  64.656  1.00  0.00    -0.298 C  
HETATM   24  C   UNL     1     -12.825  14.172  65.796  1.00  0.00    -0.363 C  
ENDBRANCH  19  20
ENDBRANCH  18  19
ENDBRANCH  17  18
ENDBRANCH  16  17
ENDBRANCH  13  16
ENDBRANCH  11  12
ENDBRANCH   9  11
ENDBRANCH   2   3
TORSDOF 8
ENDMDL
MODEL      174
REMARK 921   NORMALIZED FREE ENERGY PREDICTED BY IDOCK:   -4.42 KCAL/MOL
REMARK 922        TOTAL FREE ENERGY PREDICTED BY IDOCK:   -7.70 KCAL/MOL
REMARK 923 INTER-LIGAND FREE ENERGY PREDICTED BY IDOCK:   -6.60 KCAL/MOL
REMARK 924 INTRA-LIGAND FREE ENERGY PREDICTED BY IDOCK:   -1.10 KCAL/MOL
REMARK 927      BINDING AFFINITY PREDICTED BY RF-SCORE:    0.00 PKD
ROOT
HETATM    1  C   UNL     1      -9.765  10.789  63.696  1.00  0.00    -0.327 C  
HETATM    2  O   UNL     1     -11.039  11.415  63.532  1.00  0.00    -0.399 OA 
ENDROOT
BRANCH   2   3
HETATM    3  C   UNL     1     -11.423  12.191  64.593  1.00  0.00    -0.328 A  
HETATM    4  C   UNL     1     -12.085  13.381  64.290  1.00  0.00    -0.424 A  
HETATM    5  O   UNL     1     -12.322  13.728  62.989  1.00  0.00    -1.089 OA 
HETATM    6  C   UNL     1     -12.490  14.262  65.291  1.00  0.00    -0.428 A  
HETATM    7  C   UNL     1     -12.220  13.946  66.623  1.00  0.00    -0.465 A  
HETATM    8  H   UNL     1     -12.773  14.538  62.782  1.00  0.00     0.000 HD 
HETATM    9  C   UNL     1     -11.577  12.747  66.955  1.00  0.00    -0.422 A  
HETATM   10  C   UNL     1     -11.202  11.861  65.930  1.00  0.00    -0.373 A  
BRANCH   9  11
HETATM   11  C   UNL     1     -11.199  12.423  68.376  1.00  0.00    -0.273 C  
BRANCH  11  12
HETATM   12  N   UNL     1     -11.252  11.015  68.636  1.00  0.00    -0.239 N  
HETATM   13  C   UNL     1     -11.749  10.517  69.818  1.00  0.00    -0.281 C  
HETATM   14  H   UNL     1     -10.913  10.365  67.927  1.00  0.00     0.000 HD 
HETATM   15  O   UNL     1     -12.192  11.204  70.719  1.00  0.00    -0.346 OA 
BRANCH  13  16
HETATM   16  C   UNL     1     -11.606   9.021  69.909  1.00  0.00     0.165 C  
BRANCH  16  17
HETATM   17  C   UNL     1     -11.354   8.524  71.326  1.00  0.00    -0.325 C  
BRANCH  17  18
HETATM   18  C   UNL     1      -9.941   8.836  71.841  1.00  0.00    -0.401 C  
BRANCH  18  19
HETATM   19  C   UNL     1      -8.916   7.701  71.713  1.00  0.00    -0.145 C  
BRANCH  19  20
HETATM   20  C   UNL     1      -7.598   8.113  71.115  1.00  0.00    -0.082 C  
HETATM   21  C   UNL     1      -7.364   8.392  69.820  1.00  0.00    -0.060 C  
HETATM   22  C   UNL     1      -8.400   8.498  68.728  1.00  0.00    -0.122 C  
HETATM   23  C   UNL     1      -8.592   7.170  67.999  1.00  0.00    -0.128 C  
HETATM   24  C   UNL     1      -8.011   9.601  67.747  1.00  0.00    -0.105 C  
ENDBRANCH  19  20
ENDBRANCH  18  19
ENDBRANCH  17  18
ENDBRANCH  16  17
ENDBRANCH  13  16
ENDBRANCH  11  12
ENDBRANCH   9  11
ENDBRANCH   2   3
TORSDOF 8
ENDMDL
MODEL      175
REMARK 921   NORMALIZED FREE ENERGY PREDICTED BY IDOCK:   -4.41 KCAL/MOL
REMARK 922        TOTAL FREE ENERGY PREDICTED BY IDOCK:   -7.69 KCAL/MOL
REMARK 923 INTER-LIGAND FREE ENERGY PREDICTED BY IDOCK:   -6.16 KCAL/MOL
REMARK 924 INTRA-LIGAND FREE ENERGY PREDICTED BY IDOCK:   -1.53 KCAL/MOL
REMARK 927      BINDING AFFINITY PREDICTED BY RF-SCORE:    0.00 PKD
ROOT
HETATM    1  C   UNL     1     -11.145   9.110  71.304  1.00  0.00    -0.335 C  
HETATM    2  O   UNL     1     -12.239   9.683  70.587  1.00  0.00    -0.252 OA 
ENDROOT
BRANCH   2   3
HETATM    3  C   UNL     1     -12.313  11.048  70.675  1.00  0.00    -0.386 A  
HETATM    4  C   UNL     1     -13.093  11.567  71.709  1.00  0.00    -0.398 A  
HETATM    5  O   UNL     1     -13.740  10.728  72.573  1.00  0.00    -0.449 OA 
HETATM    6  C   UNL     1     -13.264  12.940  71.870  1.00  0.00    -0.521 A  
HETATM    7  C   UNL     1     -12.646  13.811  70.973  1.00  0.00    -0.446 A  
HETATM    8  H   UNL     1     -14.271  11.081  73.277  1.00  0.00     0.000 HD 
HETATM    9  C   UNL     1     -11.839  13.317  69.939  1.00  0.00    -0.380 A  
HETATM   10  C   UNL     1     -11.659  11.929  69.813  1.00  0.00    -0.359 A  
BRANCH   9  11
HETATM   11  C   UNL     1     -11.231  14.231  68.910  1.00  0.00    -0.264 C  
BRANCH  11  12
HETATM   12  N   UNL     1     -11.075  13.580  67.642  1.00  0.00    -0.262 N  
HETATM   13  C   UNL     1     -11.682  14.060  66.505  1.00  0.00    -0.394 C  
HETATM   14  H   UNL     1     -10.499  12.741  67.582  1.00  0.00     0.000 HD 
HETATM   15  O   UNL     1     -12.374  15.060  66.467  1.00  0.00     0.081 OA 
BRANCH  13  16
HETATM   16  C   UNL     1     -11.464  13.157  65.321  1.00  0.00    -0.328 C  
BRANCH  16  17
HETATM   17  C   UNL     1     -11.311  11.690  65.699  1.00  0.00    -0.233 C  
BRANCH  17  18
HETATM   18  C   UNL     1     -10.057  11.033  65.102  1.00  0.00    -0.346 C  
BRANCH  18  19
HETATM   19  C   UNL     1      -9.396   9.948  65.963  1.00  0.00    -0.240 C  
BRANCH  19  20
HETATM   20  C   UNL     1      -9.465  10.199  67.446  1.00  0.00    -0.175 C  
HETATM   21  C   UNL     1      -8.655  11.006  68.154  1.00  0.00    -0.140 C  
HETATM   22  C   UNL     1      -7.613  11.942  67.593  1.00  0.00    -0.136 C  
HETATM   23  C   UNL     1      -6.238  11.282  67.522  1.00  0.00    -0.064 C  
HETATM   24  C   UNL     1      -7.556  13.219  68.429  1.00  0.00    -0.137 C  
ENDBRANCH  19  20
ENDBRANCH  18  19
ENDBRANCH  17  18
ENDBRANCH  16  17
ENDBRANCH  13  16
ENDBRANCH  11  12
ENDBRANCH   9  11
ENDBRANCH   2   3
TORSDOF 8
ENDMDL
MODEL      176
REMARK 921   NORMALIZED FREE ENERGY PREDICTED BY IDOCK:   -4.41 KCAL/MOL
REMARK 922        TOTAL FREE ENERGY PREDICTED BY IDOCK:   -7.68 KCAL/MOL
REMARK 923 INTER-LIGAND FREE ENERGY PREDICTED BY IDOCK:   -6.55 KCAL/MOL
REMARK 924 INTRA-LIGAND FREE ENERGY PREDICTED BY IDOCK:   -1.13 KCAL/MOL
REMARK 927      BINDING AFFINITY PREDICTED BY RF-SCORE:    0.00 PKD
ROOT
HETATM    1  C   UNL     1     -10.237   4.234  64.534  1.00  0.00    -0.084 C  
HETATM    2  O   UNL     1      -9.244   4.723  65.438  1.00  0.00    -0.149 OA 
ENDROOT
BRANCH   2   3
HETATM    3  C   UNL     1      -9.699   5.685  66.301  1.00  0.00    -0.135 A  
HETATM    4  C   UNL     1      -9.375   7.006  65.992  1.00  0.00     0.034 A  
HETATM    5  O   UNL     1      -8.637   7.293  64.877  1.00  0.00    -0.347 OA 
HETATM    6  C   UNL     1      -9.756   8.060  66.819  1.00  0.00    -0.305 A  
HETATM    7  C   UNL     1     -10.473   7.784  67.983  1.00  0.00    -0.244 A  
HETATM    8  H   UNL     1      -8.417   8.193  64.666  1.00  0.00     0.000 HD 
HETATM    9  C   UNL     1     -10.831   6.468  68.305  1.00  0.00    -0.359 A  
HETATM   10  C   UNL     1     -10.458   5.424  67.442  1.00  0.00    -0.253 A  
BRANCH   9  11
HETATM   11  C   UNL     1     -11.530   6.136  69.596  1.00  0.00    -0.262 C  
BRANCH  11  12
HETATM   12  N   UNL     1     -11.697   7.291  70.428  1.00  0.00    -0.490 N  
HETATM   13  C   UNL     1     -11.576   7.219  71.796  1.00  0.00    -0.275 C  
HETATM   14  H   UNL     1     -11.911   8.189  69.994  1.00  0.00     0.000 HD 
HETATM   15  O   UNL     1     -11.308   6.202  72.408  1.00  0.00    -0.269 OA 
BRANCH  13  16
HETATM   16  C   UNL     1     -11.898   8.529  72.464  1.00  0.00    -0.398 C  
BRANCH  16  17
HETATM   17  C   UNL     1     -13.036   9.286  71.794  1.00  0.00    -0.472 C  
BRANCH  17  18
HETATM   18  C   UNL     1     -12.676  10.734  71.430  1.00  0.00    -0.544 C  
BRANCH  18  19
HETATM   19  C   UNL     1     -11.444  10.911  70.532  1.00  0.00    -0.314 C  
BRANCH  19  20
HETATM   20  C   UNL     1     -11.758  11.118  69.074  1.00  0.00    -0.408 C  
HETATM   21  C   UNL     1     -11.647  12.272  68.393  1.00  0.00    -0.377 C  
HETATM   22  C   UNL     1     -11.044  13.557  68.904  1.00  0.00    -0.305 C  
HETATM   23  C   UNL     1     -12.101  14.476  69.512  1.00  0.00    -0.348 C  
HETATM   24  C   UNL     1     -10.296  14.266  67.777  1.00  0.00    -0.238 C  
ENDBRANCH  19  20
ENDBRANCH  18  19
ENDBRANCH  17  18
ENDBRANCH  16  17
ENDBRANCH  13  16
ENDBRANCH  11  12
ENDBRANCH   9  11
ENDBRANCH   2   3
TORSDOF 8
ENDMDL
MODEL      177
REMARK 921   NORMALIZED FREE ENERGY PREDICTED BY IDOCK:   -4.40 KCAL/MOL
REMARK 922        TOTAL FREE ENERGY PREDICTED BY IDOCK:   -7.67 KCAL/MOL
REMARK 923 INTER-LIGAND FREE ENERGY PREDICTED BY IDOCK:   -6.52 KCAL/MOL
REMARK 924 INTRA-LIGAND FREE ENERGY PREDICTED BY IDOCK:   -1.15 KCAL/MOL
REMARK 927      BINDING AFFINITY PREDICTED BY RF-SCORE:    0.00 PKD
ROOT
HETATM    1  C   UNL     1     -10.233  13.595  65.742  1.00  0.00    -0.308 C  
HETATM    2  O   UNL     1     -10.979  14.633  66.380  1.00  0.00    -0.313 OA 
ENDROOT
BRANCH   2   3
HETATM    3  C   UNL     1     -11.362  14.339  67.662  1.00  0.00    -0.324 A  
HETATM    4  C   UNL     1     -11.514  15.419  68.533  1.00  0.00    -0.350 A  
HETATM    5  O   UNL     1     -11.281  16.694  68.098  1.00  0.00    -0.339 OA 
HETATM    6  C   UNL     1     -11.867  15.231  69.867  1.00  0.00    -0.363 A  
HETATM    7  C   UNL     1     -12.067  13.934  70.340  1.00  0.00    -0.421 A  
HETATM    8  H   UNL     1     -11.385  17.429  68.690  1.00  0.00     0.000 HD 
HETATM    9  C   UNL     1     -11.943  12.835  69.482  1.00  0.00    -0.338 A  
HETATM   10  C   UNL     1     -11.613  13.050  68.133  1.00  0.00    -0.379 A  
BRANCH   9  11
HETATM   11  C   UNL     1     -12.071  11.422  69.987  1.00  0.00    -0.340 C  
BRANCH  11  12
HETATM   12  N   UNL     1     -10.793  10.814  70.206  1.00  0.00    -0.454 N  
HETATM   13  C   UNL     1     -10.672   9.579  70.799  1.00  0.00    -0.321 C  
HETATM   14  H   UNL     1      -9.950  11.310  69.915  1.00  0.00     0.000 HD 
HETATM   15  O   UNL     1     -11.614   8.901  71.168  1.00  0.00    -0.274 OA 
BRANCH  13  16
HETATM   16  C   UNL     1      -9.235   9.193  71.022  1.00  0.00    -0.321 C  
BRANCH  16  17
HETATM   17  C   UNL     1      -8.277   9.824  70.020  1.00  0.00    -0.207 C  
BRANCH  17  18
HETATM   18  C   UNL     1      -7.388   8.801  69.298  1.00  0.00    -0.070 C  
BRANCH  18  19
HETATM   19  C   UNL     1      -7.516   7.348  69.775  1.00  0.00    -0.092 C  
BRANCH  19  20
HETATM   20  C   UNL     1      -7.687   6.339  68.670  1.00  0.00    -0.101 C  
HETATM   21  C   UNL     1      -8.849   5.969  68.104  1.00  0.00    -0.111 C  
HETATM   22  C   UNL     1     -10.201   6.593  68.349  1.00  0.00    -0.188 C  
HETATM   23  C   UNL     1     -10.965   5.871  69.457  1.00  0.00    -0.438 C  
HETATM   24  C   UNL     1     -11.011   6.606  67.055  1.00  0.00    -0.463 C  
ENDBRANCH  19  20
ENDBRANCH  18  19
ENDBRANCH  17  18
ENDBRANCH  16  17
ENDBRANCH  13  16
ENDBRANCH  11  12
ENDBRANCH   9  11
ENDBRANCH   2   3
TORSDOF 8
ENDMDL
MODEL      178
REMARK 921   NORMALIZED FREE ENERGY PREDICTED BY IDOCK:   -4.38 KCAL/MOL
REMARK 922        TOTAL FREE ENERGY PREDICTED BY IDOCK:   -7.65 KCAL/MOL
REMARK 923 INTER-LIGAND FREE ENERGY PREDICTED BY IDOCK:   -6.55 KCAL/MOL
REMARK 924 INTRA-LIGAND FREE ENERGY PREDICTED BY IDOCK:   -1.09 KCAL/MOL
REMARK 927      BINDING AFFINITY PREDICTED BY RF-SCORE:    0.00 PKD
ROOT
HETATM    1  C   UNL     1     -12.451  12.822  64.342  1.00  0.00    -0.399 C  
HETATM    2  O   UNL     1     -11.197  13.038  64.991  1.00  0.00    -0.288 OA 
ENDROOT
BRANCH   2   3
HETATM    3  C   UNL     1     -11.273  13.830  66.106  1.00  0.00    -0.300 A  
HETATM    4  C   UNL     1     -10.902  15.165  65.952  1.00  0.00    -0.339 A  
HETATM    5  O   UNL     1     -10.486  15.630  64.735  1.00  0.00    -0.568 OA 
HETATM    6  C   UNL     1     -10.909  16.050  67.027  1.00  0.00    -0.227 A  
HETATM    7  C   UNL     1     -11.291  15.584  68.286  1.00  0.00    -0.360 A  
HETATM    8  H   UNL     1     -10.234  16.540  64.629  1.00  0.00     0.000 HD 
HETATM    9  C   UNL     1     -11.689  14.254  68.464  1.00  0.00    -0.376 A  
HETATM   10  C   UNL     1     -11.700  13.386  67.358  1.00  0.00    -0.415 A  
BRANCH   9  11
HETATM   11  C   UNL     1     -12.024  13.707  69.826  1.00  0.00    -0.341 C  
BRANCH  11  12
HETATM   12  N   UNL     1     -11.747  12.304  69.922  1.00  0.00    -0.463 N  
HETATM   13  C   UNL     1     -12.344  11.514  70.876  1.00  0.00    -0.359 C  
HETATM   14  H   UNL     1     -11.089  11.881  69.267  1.00  0.00     0.000 HD 
HETATM   15  O   UNL     1     -13.152  11.917  71.693  1.00  0.00    -0.436 OA 
BRANCH  13  16
HETATM   16  C   UNL     1     -11.821  10.103  70.854  1.00  0.00    -0.468 C  
BRANCH  16  17
HETATM   17  C   UNL     1     -10.500   9.959  70.110  1.00  0.00    -0.339 C  
BRANCH  17  18
HETATM   18  C   UNL     1     -10.551   8.933  68.968  1.00  0.00    -0.203 C  
BRANCH  18  19
HETATM   19  C   UNL     1      -9.408   9.012  67.947  1.00  0.00    -0.155 C  
BRANCH  19  20
HETATM   20  C   UNL     1      -8.057   8.629  68.490  1.00  0.00    -0.117 C  
HETATM   21  C   UNL     1      -7.041   9.468  68.760  1.00  0.00    -0.068 C  
HETATM   22  C   UNL     1      -7.094  10.976  68.721  1.00  0.00    -0.086 C  
HETATM   23  C   UNL     1      -6.663  11.522  67.361  1.00  0.00    -0.101 C  
HETATM   24  C   UNL     1      -6.226  11.556  69.835  1.00  0.00    -0.147 C  
ENDBRANCH  19  20
ENDBRANCH  18  19
ENDBRANCH  17  18
ENDBRANCH  16  17
ENDBRANCH  13  16
ENDBRANCH  11  12
ENDBRANCH   9  11
ENDBRANCH   2   3
TORSDOF 8
ENDMDL
MODEL      179
REMARK 921   NORMALIZED FREE ENERGY PREDICTED BY IDOCK:   -4.38 KCAL/MOL
REMARK 922        TOTAL FREE ENERGY PREDICTED BY IDOCK:   -7.65 KCAL/MOL
REMARK 923 INTER-LIGAND FREE ENERGY PREDICTED BY IDOCK:   -6.53 KCAL/MOL
REMARK 924 INTRA-LIGAND FREE ENERGY PREDICTED BY IDOCK:   -1.11 KCAL/MOL
REMARK 927      BINDING AFFINITY PREDICTED BY RF-SCORE:    0.00 PKD
ROOT
HETATM    1  C   UNL     1      -7.904   8.794  70.070  1.00  0.00    -0.094 C  
HETATM    2  O   UNL     1      -8.266   8.531  71.427  1.00  0.00    -0.121 OA 
ENDROOT
BRANCH   2   3
HETATM    3  C   UNL     1      -9.610   8.629  71.677  1.00  0.00    -0.274 A  
HETATM    4  C   UNL     1     -10.142   7.724  72.595  1.00  0.00    -0.260 A  
HETATM    5  O   UNL     1      -9.337   6.795  73.195  1.00  0.00    -0.131 OA 
HETATM    6  C   UNL     1     -11.501   7.712  72.898  1.00  0.00    -0.342 A  
HETATM    7  C   UNL     1     -12.346   8.624  72.264  1.00  0.00    -0.449 A  
HETATM    8  H   UNL     1      -9.700   6.179  73.820  1.00  0.00     0.000 HD 
HETATM    9  C   UNL     1     -11.833   9.559  71.355  1.00  0.00    -0.464 A  
HETATM   10  C   UNL     1     -10.454   9.569  71.086  1.00  0.00    -0.358 A  
BRANCH   9  11
HETATM   11  C   UNL     1     -12.734  10.496  70.596  1.00  0.00    -0.355 C  
BRANCH  11  12
HETATM   12  N   UNL     1     -12.021  11.630  70.089  1.00  0.00    -0.349 N  
HETATM   13  C   UNL     1     -11.701  11.746  68.757  1.00  0.00    -0.329 C  
HETATM   14  H   UNL     1     -11.744  12.372  70.733  1.00  0.00     0.000 HD 
HETATM   15  O   UNL     1     -11.997  10.927  67.907  1.00  0.00    -0.585 OA 
BRANCH  13  16
HETATM   16  C   UNL     1     -10.862  12.964  68.478  1.00  0.00    -0.283 C  
BRANCH  16  17
HETATM   17  C   UNL     1     -11.253  13.687  67.196  1.00  0.00    -0.327 C  
BRANCH  17  18
HETATM   18  C   UNL     1     -10.977  15.197  67.239  1.00  0.00    -0.327 C  
BRANCH  18  19
HETATM   19  C   UNL     1      -9.999  15.668  68.324  1.00  0.00    -0.213 C  
BRANCH  19  20
HETATM   20  C   UNL     1     -10.455  16.880  69.093  1.00  0.00    -0.335 C  
HETATM   21  C   UNL     1     -11.283  16.884  70.153  1.00  0.00     0.362 C  
HETATM   22  C   UNL     1     -11.803  15.671  70.884  1.00  0.00    -0.428 C  
HETATM   23  C   UNL     1     -13.151  15.213  70.333  1.00  0.00    -0.232 C  
HETATM   24  C   UNL     1     -11.904  15.968  72.379  1.00  0.00    -0.639 C  
ENDBRANCH  19  20
ENDBRANCH  18  19
ENDBRANCH  17  18
ENDBRANCH  16  17
ENDBRANCH  13  16
ENDBRANCH  11  12
ENDBRANCH   9  11
ENDBRANCH   2   3
TORSDOF 8
ENDMDL
MODEL      180
REMARK 921   NORMALIZED FREE ENERGY PREDICTED BY IDOCK:   -4.38 KCAL/MOL
REMARK 922        TOTAL FREE ENERGY PREDICTED BY IDOCK:   -7.64 KCAL/MOL
REMARK 923 INTER-LIGAND FREE ENERGY PREDICTED BY IDOCK:   -7.09 KCAL/MOL
REMARK 924 INTRA-LIGAND FREE ENERGY PREDICTED BY IDOCK:   -0.55 KCAL/MOL
REMARK 927      BINDING AFFINITY PREDICTED BY RF-SCORE:    0.00 PKD
ROOT
HETATM    1  C   UNL     1     -10.501  19.522  68.129  1.00  0.00    -0.377 C  
HETATM    2  O   UNL     1      -9.731  18.423  68.619  1.00  0.00    -0.336 OA 
ENDROOT
BRANCH   2   3
HETATM    3  C   UNL     1      -9.830  17.287  67.860  1.00  0.00    -0.283 A  
HETATM    4  C   UNL     1      -8.893  17.134  66.837  1.00  0.00    -0.235 A  
HETATM    5  O   UNL     1      -7.939  18.091  66.627  1.00  0.00    -0.230 OA 
HETATM    6  C   UNL     1      -8.923  16.034  65.984  1.00  0.00    -0.345 A  
HETATM    7  C   UNL     1      -9.916  15.068  66.156  1.00  0.00    -0.313 A  
HETATM    8  H   UNL     1      -7.301  17.987  65.931  1.00  0.00     0.000 HD 
HETATM    9  C   UNL     1     -10.854  15.186  67.189  1.00  0.00    -0.320 A  
HETATM   10  C   UNL     1     -10.787  16.291  68.055  1.00  0.00    -0.339 A  
BRANCH   9  11
HETATM   11  C   UNL     1     -11.984  14.203  67.343  1.00  0.00    -0.404 C  
BRANCH  11  12
HETATM   12  N   UNL     1     -11.906  13.488  68.583  1.00  0.00    -0.353 N  
HETATM   13  C   UNL     1     -11.882  12.114  68.623  1.00  0.00    -0.306 C  
HETATM   14  H   UNL     1     -11.866  14.012  69.457  1.00  0.00     0.000 HD 
HETATM   15  O   UNL     1     -11.909  11.398  67.639  1.00  0.00    -0.609 OA 
BRANCH  13  16
HETATM   16  C   UNL     1     -11.907  11.586  70.032  1.00  0.00    -0.435 C  
BRANCH  16  17
HETATM   17  C   UNL     1     -11.708  10.079  70.117  1.00  0.00    -0.285 C  
BRANCH  17  18
HETATM   18  C   UNL     1     -10.360   9.674  70.733  1.00  0.00    -0.356 C  
BRANCH  18  19
HETATM   19  C   UNL     1      -9.806   8.312  70.294  1.00  0.00    -0.186 C  
BRANCH  19  20
HETATM   20  C   UNL     1     -10.772   7.167  70.445  1.00  0.00    -0.255 C  
HETATM   21  C   UNL     1     -11.028   6.216  69.528  1.00  0.00    -0.463 C  
HETATM   22  C   UNL     1     -10.293   6.010  68.226  1.00  0.00    -0.252 C  
HETATM   23  C   UNL     1     -10.969   6.748  67.072  1.00  0.00    -0.439 C  
HETATM   24  C   UNL     1     -10.182   4.518  67.921  1.00  0.00     0.034 C  
ENDBRANCH  19  20
ENDBRANCH  18  19
ENDBRANCH  17  18
ENDBRANCH  16  17
ENDBRANCH  13  16
ENDBRANCH  11  12
ENDBRANCH   9  11
ENDBRANCH   2   3
TORSDOF 8
ENDMDL
MODEL      181
REMARK 921   NORMALIZED FREE ENERGY PREDICTED BY IDOCK:   -4.37 KCAL/MOL
REMARK 922        TOTAL FREE ENERGY PREDICTED BY IDOCK:   -7.63 KCAL/MOL
REMARK 923 INTER-LIGAND FREE ENERGY PREDICTED BY IDOCK:   -6.03 KCAL/MOL
REMARK 924 INTRA-LIGAND FREE ENERGY PREDICTED BY IDOCK:   -1.61 KCAL/MOL
REMARK 927      BINDING AFFINITY PREDICTED BY RF-SCORE:    0.00 PKD
ROOT
HETATM    1  C   UNL     1      -7.583   3.565  68.544  1.00  0.00    -0.053 C  
HETATM    2  O   UNL     1      -8.431   4.037  67.496  1.00  0.00    -0.097 OA 
ENDROOT
BRANCH   2   3
HETATM    3  C   UNL     1      -9.435   4.868  67.919  1.00  0.00    -0.139 A  
HETATM    4  C   UNL     1     -10.020   5.685  66.951  1.00  0.00    -0.174 A  
HETATM    5  O   UNL     1      -9.589   5.636  65.654  1.00  0.00    -0.352 OA 
HETATM    6  C   UNL     1     -11.025   6.591  67.278  1.00  0.00    -0.475 A  
HETATM    7  C   UNL     1     -11.449   6.686  68.604  1.00  0.00    -0.011 A  
HETATM    8  H   UNL     1      -9.988   6.191  64.995  1.00  0.00     0.000 HD 
HETATM    9  C   UNL     1     -10.894   5.862  69.591  1.00  0.00    -0.444 A  
HETATM   10  C   UNL     1      -9.900   4.935  69.233  1.00  0.00    -0.272 A  
BRANCH   9  11
HETATM   11  C   UNL     1     -11.274   6.003  71.041  1.00  0.00    -0.263 C  
BRANCH  11  12
HETATM   12  N   UNL     1     -12.261   7.023  71.239  1.00  0.00    -0.359 N  
HETATM   13  C   UNL     1     -12.067   8.052  72.130  1.00  0.00    -0.343 C  
HETATM   14  H   UNL     1     -13.129   6.985  70.705  1.00  0.00     0.000 HD 
HETATM   15  O   UNL     1     -11.063   8.197  72.802  1.00  0.00    -0.382 OA 
BRANCH  13  16
HETATM   16  C   UNL     1     -13.278   8.939  72.246  1.00  0.00    -0.498 C  
BRANCH  16  17
HETATM   17  C   UNL     1     -13.051  10.346  71.711  1.00  0.00    -0.567 C  
BRANCH  17  18
HETATM   18  C   UNL     1     -12.688  10.381  70.219  1.00  0.00    -0.221 C  
BRANCH  18  19
HETATM   19  C   UNL     1     -11.317  10.980  69.878  1.00  0.00    -0.364 C  
BRANCH  19  20
HETATM   20  C   UNL     1     -10.192   9.980  69.830  1.00  0.00    -0.304 C  
HETATM   21  C   UNL     1      -9.362   9.766  68.794  1.00  0.00    -0.150 C  
HETATM   22  C   UNL     1      -9.286  10.582  67.527  1.00  0.00    -0.152 C  
HETATM   23  C   UNL     1     -10.172  10.003  66.427  1.00  0.00    -0.290 C  
HETATM   24  C   UNL     1      -7.836  10.680  67.057  1.00  0.00    -0.117 C  
ENDBRANCH  19  20
ENDBRANCH  18  19
ENDBRANCH  17  18
ENDBRANCH  16  17
ENDBRANCH  13  16
ENDBRANCH  11  12
ENDBRANCH   9  11
ENDBRANCH   2   3
TORSDOF 8
ENDMDL
MODEL      182
REMARK 921   NORMALIZED FREE ENERGY PREDICTED BY IDOCK:   -4.36 KCAL/MOL
REMARK 922        TOTAL FREE ENERGY PREDICTED BY IDOCK:   -7.62 KCAL/MOL
REMARK 923 INTER-LIGAND FREE ENERGY PREDICTED BY IDOCK:   -6.74 KCAL/MOL
REMARK 924 INTRA-LIGAND FREE ENERGY PREDICTED BY IDOCK:   -0.88 KCAL/MOL
REMARK 927      BINDING AFFINITY PREDICTED BY RF-SCORE:    0.00 PKD
ROOT
HETATM    1  C   UNL     1      -8.189   9.764  67.453  1.00  0.00    -0.114 C  
HETATM    2  O   UNL     1      -8.831   8.844  66.569  1.00  0.00    -0.127 OA 
ENDROOT
BRANCH   2   3
HETATM    3  C   UNL     1      -9.097   9.354  65.325  1.00  0.00    -0.232 A  
HETATM    4  C   UNL     1      -8.408   8.783  64.255  1.00  0.00    -0.151 A  
HETATM    5  O   UNL     1      -7.517   7.768  64.469  1.00  0.00    -0.083 OA 
HETATM    6  C   UNL     1      -8.577   9.248  62.953  1.00  0.00    -0.220 A  
HETATM    7  C   UNL     1      -9.451  10.311  62.719  1.00  0.00    -0.323 A  
HETATM    8  H   UNL     1      -7.049   7.380  63.740  1.00  0.00     0.000 HD 
HETATM    9  C   UNL     1     -10.171  10.886  63.773  1.00  0.00    -0.407 A  
HETATM   10  C   UNL     1     -10.005  10.383  65.075  1.00  0.00    -0.399 A  
BRANCH   9  11
HETATM   11  C   UNL     1     -11.054  12.087  63.561  1.00  0.00    -0.443 C  
BRANCH  11  12
HETATM   12  N   UNL     1     -11.022  12.980  64.680  1.00  0.00    -0.323 N  
HETATM   13  C   UNL     1     -11.835  14.087  64.745  1.00  0.00    -0.403 C  
HETATM   14  H   UNL     1     -10.380  12.790  65.449  1.00  0.00     0.000 HD 
HETATM   15  O   UNL     1     -12.645  14.394  63.889  1.00  0.00    -0.814 OA 
BRANCH  13  16
HETATM   16  C   UNL     1     -11.551  14.931  65.958  1.00  0.00    -0.226 C  
BRANCH  16  17
HETATM   17  C   UNL     1     -10.097  15.371  66.062  1.00  0.00    -0.346 C  
BRANCH  17  18
HETATM   18  C   UNL     1      -9.650  15.666  67.501  1.00  0.00    -0.224 C  
BRANCH  18  19
HETATM   19  C   UNL     1      -8.189  16.104  67.671  1.00  0.00    -0.161 C  
BRANCH  19  20
HETATM   20  C   UNL     1      -7.666  16.978  66.562  1.00  0.00    -0.327 C  
HETATM   21  C   UNL     1      -7.924  18.288  66.393  1.00  0.00    -0.290 C  
HETATM   22  C   UNL     1      -8.661  19.184  67.356  1.00  0.00    -0.317 C  
HETATM   23  C   UNL     1     -10.153  19.254  67.036  1.00  0.00    -0.468 C  
HETATM   24  C   UNL     1      -8.042  20.580  67.346  1.00  0.00    -0.345 C  
ENDBRANCH  19  20
ENDBRANCH  18  19
ENDBRANCH  17  18
ENDBRANCH  16  17
ENDBRANCH  13  16
ENDBRANCH  11  12
ENDBRANCH   9  11
ENDBRANCH   2   3
TORSDOF 8
ENDMDL
MODEL      183
REMARK 921   NORMALIZED FREE ENERGY PREDICTED BY IDOCK:   -4.36 KCAL/MOL
REMARK 922        TOTAL FREE ENERGY PREDICTED BY IDOCK:   -7.61 KCAL/MOL
REMARK 923 INTER-LIGAND FREE ENERGY PREDICTED BY IDOCK:   -5.86 KCAL/MOL
REMARK 924 INTRA-LIGAND FREE ENERGY PREDICTED BY IDOCK:   -1.76 KCAL/MOL
REMARK 927      BINDING AFFINITY PREDICTED BY RF-SCORE:    0.00 PKD
ROOT
HETATM    1  C   UNL     1      -6.902   8.855  70.905  1.00  0.00    -0.076 C  
HETATM    2  O   UNL     1      -8.039   9.668  70.609  1.00  0.00    -0.243 OA 
ENDROOT
BRANCH   2   3
HETATM    3  C   UNL     1      -8.032  10.203  69.348  1.00  0.00    -0.154 A  
HETATM    4  C   UNL     1      -7.429  11.453  69.202  1.00  0.00    -0.057 A  
HETATM    5  O   UNL     1      -6.885  12.087  70.285  1.00  0.00    -0.413 OA 
HETATM    6  C   UNL     1      -7.396  12.103  67.971  1.00  0.00    -0.105 A  
HETATM    7  C   UNL     1      -7.984  11.491  66.864  1.00  0.00    -0.164 A  
HETATM    8  H   UNL     1      -6.474  12.938  70.185  1.00  0.00     0.000 HD 
HETATM    9  C   UNL     1      -8.575  10.227  66.978  1.00  0.00    -0.129 A  
HETATM   10  C   UNL     1      -8.573   9.577  68.224  1.00  0.00    -0.120 A  
BRANCH   9  11
HETATM   11  C   UNL     1      -9.289   9.583  65.819  1.00  0.00    -0.233 C  
BRANCH  11  12
HETATM   12  N   UNL     1     -10.282  10.448  65.255  1.00  0.00    -0.291 N  
HETATM   13  C   UNL     1     -10.297  10.753  63.914  1.00  0.00    -0.259 C  
HETATM   14  H   UNL     1     -10.996  10.848  65.863  1.00  0.00     0.000 HD 
HETATM   15  O   UNL     1      -9.500  10.317  63.103  1.00  0.00    -0.290 OA 
BRANCH  13  16
HETATM   16  C   UNL     1     -11.361  11.760  63.572  1.00  0.00    -0.496 C  
BRANCH  16  17
HETATM   17  C   UNL     1     -11.572  12.809  64.655  1.00  0.00    -0.384 C  
BRANCH  17  18
HETATM   18  C   UNL     1     -10.417  13.815  64.764  1.00  0.00    -0.448 C  
BRANCH  18  19
HETATM   19  C   UNL     1     -10.194  14.429  66.153  1.00  0.00    -0.317 C  
BRANCH  19  20
HETATM   20  C   UNL     1     -11.457  14.803  66.882  1.00  0.00    -0.354 C  
HETATM   21  C   UNL     1     -11.988  14.155  67.935  1.00  0.00    -0.378 C  
HETATM   22  C   UNL     1     -11.353  13.019  68.697  1.00  0.00    -0.329 C  
HETATM   23  C   UNL     1     -11.783  11.660  68.148  1.00  0.00    -0.365 C  
HETATM   24  C   UNL     1     -11.694  13.133  70.182  1.00  0.00    -0.250 C  
ENDBRANCH  19  20
ENDBRANCH  18  19
ENDBRANCH  17  18
ENDBRANCH  16  17
ENDBRANCH  13  16
ENDBRANCH  11  12
ENDBRANCH   9  11
ENDBRANCH   2   3
TORSDOF 8
ENDMDL
MODEL      184
REMARK 921   NORMALIZED FREE ENERGY PREDICTED BY IDOCK:   -4.36 KCAL/MOL
REMARK 922        TOTAL FREE ENERGY PREDICTED BY IDOCK:   -7.61 KCAL/MOL
REMARK 923 INTER-LIGAND FREE ENERGY PREDICTED BY IDOCK:   -6.57 KCAL/MOL
REMARK 924 INTRA-LIGAND FREE ENERGY PREDICTED BY IDOCK:   -1.04 KCAL/MOL
REMARK 927      BINDING AFFINITY PREDICTED BY RF-SCORE:    0.00 PKD
ROOT
HETATM    1  C   UNL     1      -8.647   6.705  70.798  1.00  0.00    -0.135 C  
HETATM    2  O   UNL     1      -9.689   7.436  71.447  1.00  0.00    -0.167 OA 
ENDROOT
BRANCH   2   3
HETATM    3  C   UNL     1     -10.220   8.447  70.689  1.00  0.00    -0.194 A  
HETATM    4  C   UNL     1     -11.118   9.302  71.328  1.00  0.00    -0.357 A  
HETATM    5  O   UNL     1     -11.433   9.113  72.645  1.00  0.00     0.123 OA 
HETATM    6  C   UNL     1     -11.742  10.342  70.643  1.00  0.00    -0.438 A  
HETATM    7  C   UNL     1     -11.466  10.524  69.287  1.00  0.00    -0.323 A  
HETATM    8  H   UNL     1     -12.044   9.696  73.080  1.00  0.00     0.000 HD 
HETATM    9  C   UNL     1     -10.551   9.693  68.628  1.00  0.00    -0.246 A  
HETATM   10  C   UNL     1      -9.913   8.668  69.346  1.00  0.00    -0.197 A  
BRANCH   9  11
HETATM   11  C   UNL     1     -10.300   9.816  67.149  1.00  0.00    -0.248 C  
BRANCH  11  12
HETATM   12  N   UNL     1     -10.591  11.133  66.664  1.00  0.00    -0.255 N  
HETATM   13  C   UNL     1      -9.636  12.121  66.638  1.00  0.00    -0.220 C  
HETATM   14  H   UNL     1     -11.532  11.342  66.329  1.00  0.00     0.000 HD 
HETATM   15  O   UNL     1      -8.483  11.970  67.000  1.00  0.00    -0.172 OA 
BRANCH  13  16
HETATM   16  C   UNL     1     -10.198  13.444  66.191  1.00  0.00    -0.301 C  
BRANCH  16  17
HETATM   17  C   UNL     1      -9.900  14.584  67.155  1.00  0.00    -0.245 C  
BRANCH  17  18
HETATM   18  C   UNL     1     -11.015  15.639  67.215  1.00  0.00    -0.275 C  
BRANCH  18  19
HETATM   19  C   UNL     1     -11.703  15.808  68.577  1.00  0.00    -0.328 C  
BRANCH  19  20
HETATM   20  C   UNL     1     -11.966  14.519  69.309  1.00  0.00    -0.355 C  
HETATM   21  C   UNL     1     -12.504  14.397  70.536  1.00  0.00    -0.416 C  
HETATM   22  C   UNL     1     -13.093  15.510  71.367  1.00  0.00    -0.580 C  
HETATM   23  C   UNL     1     -12.060  16.118  72.312  1.00  0.00    -0.616 C  
HETATM   24  C   UNL     1     -14.300  14.993  72.148  1.00  0.00    -0.622 C  
ENDBRANCH  19  20
ENDBRANCH  18  19
ENDBRANCH  17  18
ENDBRANCH  16  17
ENDBRANCH  13  16
ENDBRANCH  11  12
ENDBRANCH   9  11
ENDBRANCH   2   3
TORSDOF 8
ENDMDL
MODEL      185
REMARK 921   NORMALIZED FREE ENERGY PREDICTED BY IDOCK:   -4.36 KCAL/MOL
REMARK 922        TOTAL FREE ENERGY PREDICTED BY IDOCK:   -7.61 KCAL/MOL
REMARK 923 INTER-LIGAND FREE ENERGY PREDICTED BY IDOCK:   -5.71 KCAL/MOL
REMARK 924 INTRA-LIGAND FREE ENERGY PREDICTED BY IDOCK:   -1.90 KCAL/MOL
REMARK 927      BINDING AFFINITY PREDICTED BY RF-SCORE:    0.00 PKD
ROOT
HETATM    1  C   UNL     1      -9.760  10.347  64.552  1.00  0.00    -0.330 C  
HETATM    2  O   UNL     1      -9.343   9.244  65.359  1.00  0.00    -0.239 OA 
ENDROOT
BRANCH   2   3
HETATM    3  C   UNL     1      -9.183   9.549  66.685  1.00  0.00    -0.152 A  
HETATM    4  C   UNL     1     -10.036   8.907  67.582  1.00  0.00    -0.218 A  
HETATM    5  O   UNL     1     -10.977   8.024  67.128  1.00  0.00    -0.486 OA 
HETATM    6  C   UNL     1      -9.983   9.168  68.948  1.00  0.00    -0.189 A  
HETATM    7  C   UNL     1      -9.059  10.098  69.426  1.00  0.00    -0.217 A  
HETATM    8  H   UNL     1     -11.558   7.586  67.738  1.00  0.00     0.000 HD 
HETATM    9  C   UNL     1      -8.175  10.740  68.550  1.00  0.00    -0.136 A  
HETATM   10  C   UNL     1      -8.229  10.440  67.178  1.00  0.00    -0.122 A  
BRANCH   9  11
HETATM   11  C   UNL     1      -7.227  11.807  69.029  1.00  0.00    -0.080 C  
BRANCH  11  12
HETATM   12  N   UNL     1      -7.738  13.124  68.787  1.00  0.00    -0.292 N  
HETATM   13  C   UNL     1      -7.128  13.985  67.905  1.00  0.00    -0.160 C  
HETATM   14  H   UNL     1      -8.575  13.431  69.283  1.00  0.00     0.000 HD 
HETATM   15  O   UNL     1      -6.137  13.710  67.254  1.00  0.00    -0.324 OA 
BRANCH  13  16
HETATM   16  C   UNL     1      -7.777  15.343  67.896  1.00  0.00    -0.144 C  
BRANCH  16  17
HETATM   17  C   UNL     1      -9.003  15.422  66.997  1.00  0.00    -0.253 C  
BRANCH  17  18
HETATM   18  C   UNL     1     -10.209  16.098  67.667  1.00  0.00    -0.265 C  
BRANCH  18  19
HETATM   19  C   UNL     1     -10.343  15.878  69.180  1.00  0.00    -0.237 C  
BRANCH  19  20
HETATM   20  C   UNL     1     -11.737  15.545  69.642  1.00  0.00    -0.371 C  
HETATM   21  C   UNL     1     -12.267  14.313  69.745  1.00  0.00    -0.390 C  
HETATM   22  C   UNL     1     -11.533  13.007  69.567  1.00  0.00    -0.289 C  
HETATM   23  C   UNL     1     -11.626  12.498  68.130  1.00  0.00    -0.390 C  
HETATM   24  C   UNL     1     -12.076  11.967  70.544  1.00  0.00    -0.422 C  
ENDBRANCH  19  20
ENDBRANCH  18  19
ENDBRANCH  17  18
ENDBRANCH  16  17
ENDBRANCH  13  16
ENDBRANCH  11  12
ENDBRANCH   9  11
ENDBRANCH   2   3
TORSDOF 8
ENDMDL
MODEL      186
REMARK 921   NORMALIZED FREE ENERGY PREDICTED BY IDOCK:   -4.35 KCAL/MOL
REMARK 922        TOTAL FREE ENERGY PREDICTED BY IDOCK:   -7.60 KCAL/MOL
REMARK 923 INTER-LIGAND FREE ENERGY PREDICTED BY IDOCK:   -6.79 KCAL/MOL
REMARK 924 INTRA-LIGAND FREE ENERGY PREDICTED BY IDOCK:   -0.81 KCAL/MOL
REMARK 927      BINDING AFFINITY PREDICTED BY RF-SCORE:    0.00 PKD
ROOT
HETATM    1  C   UNL     1     -10.424   8.611  67.211  1.00  0.00    -0.289 C  
HETATM    2  O   UNL     1     -10.178   9.450  66.082  1.00  0.00    -0.279 OA 
ENDROOT
BRANCH   2   3
HETATM    3  C   UNL     1     -10.595  10.745  66.245  1.00  0.00    -0.192 A  
HETATM    4  C   UNL     1     -10.555  11.562  65.115  1.00  0.00    -0.293 A  
HETATM    5  O   UNL     1     -10.114  11.065  63.919  1.00  0.00    -0.296 OA 
HETATM    6  C   UNL     1     -10.924  12.903  65.175  1.00  0.00    -0.316 A  
HETATM    7  C   UNL     1     -11.336  13.440  66.396  1.00  0.00    -0.338 A  
HETATM    8  H   UNL     1     -10.087  11.621  63.150  1.00  0.00     0.000 HD 
HETATM    9  C   UNL     1     -11.407  12.636  67.540  1.00  0.00    -0.361 A  
HETATM   10  C   UNL     1     -11.056  11.278  67.449  1.00  0.00    -0.358 A  
BRANCH   9  11
HETATM   11  C   UNL     1     -11.768  13.209  68.885  1.00  0.00    -0.326 C  
BRANCH  11  12
HETATM   12  N   UNL     1     -12.214  12.197  69.796  1.00  0.00    -0.197 N  
HETATM   13  C   UNL     1     -12.585  12.499  71.085  1.00  0.00    -0.253 C  
HETATM   14  H   UNL     1     -12.258  11.228  69.480  1.00  0.00     0.000 HD 
HETATM   15  O   UNL     1     -12.583  13.623  71.554  1.00  0.00    -0.342 OA 
BRANCH  13  16
HETATM   16  C   UNL     1     -12.914  11.267  71.885  1.00  0.00    -0.471 C  
BRANCH  16  17
HETATM   17  C   UNL     1     -13.182  10.041  71.024  1.00  0.00    -0.399 C  
BRANCH  17  18
HETATM   18  C   UNL     1     -12.847   8.717  71.726  1.00  0.00    -0.397 C  
BRANCH  18  19
HETATM   19  C   UNL     1     -11.388   8.252  71.617  1.00  0.00    -0.329 C  
BRANCH  19  20
HETATM   20  C   UNL     1     -10.689   8.069  72.938  1.00  0.00    -0.403 C  
HETATM   21  C   UNL     1     -10.333   6.897  73.494  1.00  0.00    -0.368 C  
HETATM   22  C   UNL     1     -10.421   5.538  72.845  1.00  0.00    -0.250 C  
HETATM   23  C   UNL     1     -11.740   4.840  73.171  1.00  0.00    -0.213 C  
HETATM   24  C   UNL     1      -9.235   4.678  73.276  1.00  0.00    -0.121 C  
ENDBRANCH  19  20
ENDBRANCH  18  19
ENDBRANCH  17  18
ENDBRANCH  16  17
ENDBRANCH  13  16
ENDBRANCH  11  12
ENDBRANCH   9  11
ENDBRANCH   2   3
TORSDOF 8
ENDMDL
MODEL      187
REMARK 921   NORMALIZED FREE ENERGY PREDICTED BY IDOCK:   -4.33 KCAL/MOL
REMARK 922        TOTAL FREE ENERGY PREDICTED BY IDOCK:   -7.57 KCAL/MOL
REMARK 923 INTER-LIGAND FREE ENERGY PREDICTED BY IDOCK:   -6.46 KCAL/MOL
REMARK 924 INTRA-LIGAND FREE ENERGY PREDICTED BY IDOCK:   -1.11 KCAL/MOL
REMARK 927      BINDING AFFINITY PREDICTED BY RF-SCORE:    0.00 PKD
ROOT
HETATM    1  C   UNL     1     -10.874   6.828  73.329  1.00  0.00    -0.272 C  
HETATM    2  O   UNL     1     -10.007   7.959  73.237  1.00  0.00    -0.303 OA 
ENDROOT
BRANCH   2   3
HETATM    3  C   UNL     1      -9.627   8.271  71.959  1.00  0.00    -0.248 A  
HETATM    4  C   UNL     1      -8.300   8.664  71.779  1.00  0.00    -0.139 A  
HETATM    5  O   UNL     1      -7.448   8.726  72.847  1.00  0.00    -0.357 OA 
HETATM    6  C   UNL     1      -7.816   9.035  70.527  1.00  0.00    -0.138 A  
HETATM    7  C   UNL     1      -8.682   9.019  69.433  1.00  0.00    -0.142 A  
HETATM    8  H   UNL     1      -6.544   8.993  72.724  1.00  0.00     0.000 HD 
HETATM    9  C   UNL     1     -10.012   8.608  69.582  1.00  0.00    -0.191 A  
HETATM   10  C   UNL     1     -10.471   8.211  70.850  1.00  0.00    -0.229 A  
BRANCH   9  11
HETATM   11  C   UNL     1     -10.987   8.661  68.435  1.00  0.00     0.182 C  
BRANCH  11  12
HETATM   12  N   UNL     1     -10.952   9.926  67.762  1.00  0.00    -0.433 N  
HETATM   13  C   UNL     1     -11.659  11.010  68.225  1.00  0.00    -0.284 C  
HETATM   14  H   UNL     1     -10.388  10.024  66.917  1.00  0.00     0.000 HD 
HETATM   15  O   UNL     1     -12.347  11.002  69.229  1.00  0.00    -0.412 OA 
BRANCH  13  16
HETATM   16  C   UNL     1     -11.556  12.193  67.300  1.00  0.00    -0.404 C  
BRANCH  16  17
HETATM   17  C   UNL     1     -11.126  11.820  65.888  1.00  0.00    -0.355 C  
BRANCH  17  18
HETATM   18  C   UNL     1     -11.952  12.516  64.795  1.00  0.00    -0.469 C  
BRANCH  18  19
HETATM   19  C   UNL     1     -12.557  13.873  65.176  1.00  0.00    -0.466 C  
BRANCH  19  20
HETATM   20  C   UNL     1     -11.868  15.061  64.558  1.00  0.00    -0.377 C  
HETATM   21  C   UNL     1     -10.875  15.781  65.111  1.00  0.00    -0.444 C  
HETATM   22  C   UNL     1     -10.145  15.459  66.391  1.00  0.00    -0.292 C  
HETATM   23  C   UNL     1     -10.782  16.149  67.595  1.00  0.00    -0.318 C  
HETATM   24  C   UNL     1      -8.674  15.849  66.263  1.00  0.00    -0.372 C  
ENDBRANCH  19  20
ENDBRANCH  18  19
ENDBRANCH  17  18
ENDBRANCH  16  17
ENDBRANCH  13  16
ENDBRANCH  11  12
ENDBRANCH   9  11
ENDBRANCH   2   3
TORSDOF 8
ENDMDL
MODEL      188
REMARK 921   NORMALIZED FREE ENERGY PREDICTED BY IDOCK:   -4.32 KCAL/MOL
REMARK 922        TOTAL FREE ENERGY PREDICTED BY IDOCK:   -7.55 KCAL/MOL
REMARK 923 INTER-LIGAND FREE ENERGY PREDICTED BY IDOCK:   -6.45 KCAL/MOL
REMARK 924 INTRA-LIGAND FREE ENERGY PREDICTED BY IDOCK:   -1.10 KCAL/MOL
REMARK 927      BINDING AFFINITY PREDICTED BY RF-SCORE:    0.00 PKD
ROOT
HETATM    1  C   UNL     1      -7.132  20.365  67.683  1.00  0.00    -0.307 C  
HETATM    2  O   UNL     1      -8.504  20.313  67.291  1.00  0.00    -0.331 OA 
ENDROOT
BRANCH   2   3
HETATM    3  C   UNL     1      -9.075  19.073  67.412  1.00  0.00    -0.293 A  
HETATM    4  C   UNL     1     -10.120  18.953  68.328  1.00  0.00    -0.388 A  
HETATM    5  O   UNL     1     -10.530  20.037  69.055  1.00  0.00    -0.600 OA 
HETATM    6  C   UNL     1     -10.749  17.732  68.556  1.00  0.00    -0.148 A  
HETATM    7  C   UNL     1     -10.317  16.605  67.856  1.00  0.00    -0.310 A  
HETATM    8  H   UNL     1     -11.242  19.956  69.678  1.00  0.00     0.000 HD 
HETATM    9  C   UNL     1      -9.285  16.703  66.914  1.00  0.00    -0.245 A  
HETATM   10  C   UNL     1      -8.684  17.951  66.681  1.00  0.00    -0.280 A  
BRANCH   9  11
HETATM   11  C   UNL     1      -8.745  15.488  66.208  1.00  0.00    -0.248 C  
BRANCH  11  12
HETATM   12  N   UNL     1      -9.452  14.297  66.576  1.00  0.00    -0.284 N  
HETATM   13  C   UNL     1     -10.303  13.663  65.702  1.00  0.00    -0.300 C  
HETATM   14  H   UNL     1      -9.319  13.909  67.510  1.00  0.00     0.000 HD 
HETATM   15  O   UNL     1     -10.519  14.035  64.563  1.00  0.00    -0.424 OA 
BRANCH  13  16
HETATM   16  C   UNL     1     -11.012  12.499  66.341  1.00  0.00    -0.309 C  
BRANCH  16  17
HETATM   17  C   UNL     1     -12.086  12.918  67.336  1.00  0.00    -0.258 C  
BRANCH  17  18
HETATM   18  C   UNL     1     -11.744  12.560  68.790  1.00  0.00    -0.371 C  
BRANCH  18  19
HETATM   19  C   UNL     1     -10.517  11.660  68.987  1.00  0.00    -0.159 C  
BRANCH  19  20
HETATM   20  C   UNL     1     -10.809  10.344  69.659  1.00  0.00    -0.320 C  
HETATM   21  C   UNL     1     -10.393   9.132  69.249  1.00  0.00    -0.223 C  
HETATM   22  C   UNL     1      -9.426   8.853  68.124  1.00  0.00    -0.155 C  
HETATM   23  C   UNL     1     -10.152   8.616  66.801  1.00  0.00    -0.366 C  
HETATM   24  C   UNL     1      -8.546   7.657  68.479  1.00  0.00    -0.129 C  
ENDBRANCH  19  20
ENDBRANCH  18  19
ENDBRANCH  17  18
ENDBRANCH  16  17
ENDBRANCH  13  16
ENDBRANCH  11  12
ENDBRANCH   9  11
ENDBRANCH   2   3
TORSDOF 8
ENDMDL
MODEL      189
REMARK 921   NORMALIZED FREE ENERGY PREDICTED BY IDOCK:   -4.32 KCAL/MOL
REMARK 922        TOTAL FREE ENERGY PREDICTED BY IDOCK:   -7.55 KCAL/MOL
REMARK 923 INTER-LIGAND FREE ENERGY PREDICTED BY IDOCK:   -6.71 KCAL/MOL
REMARK 924 INTRA-LIGAND FREE ENERGY PREDICTED BY IDOCK:   -0.84 KCAL/MOL
REMARK 927      BINDING AFFINITY PREDICTED BY RF-SCORE:    0.00 PKD
ROOT
HETATM    1  C   UNL     1      -9.644   7.815  66.609  1.00  0.00    -0.220 C  
HETATM    2  O   UNL     1      -9.108   9.016  66.051  1.00  0.00    -0.178 OA 
ENDROOT
BRANCH   2   3
HETATM    3  C   UNL     1      -9.925  10.108  66.180  1.00  0.00    -0.246 A  
HETATM    4  C   UNL     1     -10.427  10.656  64.999  1.00  0.00    -0.208 A  
HETATM    5  O   UNL     1     -10.098  10.110  63.790  1.00  0.00    -0.476 OA 
HETATM    6  C   UNL     1     -11.240  11.787  65.012  1.00  0.00    -0.318 A  
HETATM    7  C   UNL     1     -11.552  12.384  66.234  1.00  0.00    -0.449 A  
HETATM    8  H   UNL     1     -10.439  10.483  62.986  1.00  0.00     0.000 HD 
HETATM    9  C   UNL     1     -11.080  11.840  67.435  1.00  0.00    -0.338 A  
HETATM   10  C   UNL     1     -10.284  10.683  67.399  1.00  0.00    -0.243 A  
BRANCH   9  11
HETATM   11  C   UNL     1     -11.333  12.513  68.758  1.00  0.00    -0.293 C  
BRANCH  11  12
HETATM   12  N   UNL     1     -10.472  13.640  68.959  1.00  0.00    -0.412 N  
HETATM   13  C   UNL     1     -10.903  14.927  68.737  1.00  0.00    -0.252 C  
HETATM   14  H   UNL     1      -9.515  13.484  69.274  1.00  0.00     0.000 HD 
HETATM   15  O   UNL     1     -12.028  15.220  68.376  1.00  0.00    -0.303 OA 
BRANCH  13  16
HETATM   16  C   UNL     1      -9.798  15.934  68.909  1.00  0.00    -0.226 C  
BRANCH  16  17
HETATM   17  C   UNL     1      -9.741  16.966  67.791  1.00  0.00    -0.250 C  
BRANCH  17  18
HETATM   18  C   UNL     1     -10.388  18.308  68.164  1.00  0.00    -0.393 C  
BRANCH  18  19
HETATM   19  C   UNL     1      -9.417  19.448  68.499  1.00  0.00    -0.451 C  
BRANCH  19  20
HETATM   20  C   UNL     1      -8.903  20.204  67.303  1.00  0.00    -0.445 C  
HETATM   21  C   UNL     1      -7.729  20.001  66.679  1.00  0.00    -0.326 C  
HETATM   22  C   UNL     1      -6.756  18.881  66.949  1.00  0.00    -0.204 C  
HETATM   23  C   UNL     1      -5.693  19.288  67.967  1.00  0.00    -0.205 C  
HETATM   24  C   UNL     1      -6.106  18.429  65.643  1.00  0.00    -0.279 C  
ENDBRANCH  19  20
ENDBRANCH  18  19
ENDBRANCH  17  18
ENDBRANCH  16  17
ENDBRANCH  13  16
ENDBRANCH  11  12
ENDBRANCH   9  11
ENDBRANCH   2   3
TORSDOF 8
ENDMDL
MODEL      190
REMARK 921   NORMALIZED FREE ENERGY PREDICTED BY IDOCK:   -4.31 KCAL/MOL
REMARK 922        TOTAL FREE ENERGY PREDICTED BY IDOCK:   -7.54 KCAL/MOL
REMARK 923 INTER-LIGAND FREE ENERGY PREDICTED BY IDOCK:   -6.88 KCAL/MOL
REMARK 924 INTRA-LIGAND FREE ENERGY PREDICTED BY IDOCK:   -0.66 KCAL/MOL
REMARK 927      BINDING AFFINITY PREDICTED BY RF-SCORE:    0.00 PKD
ROOT
HETATM    1  C   UNL     1      -8.165  19.720  66.315  1.00  0.00    -0.350 C  
HETATM    2  O   UNL     1      -7.949  19.540  67.716  1.00  0.00    -0.279 OA 
ENDROOT
BRANCH   2   3
HETATM    3  C   UNL     1      -8.370  18.327  68.196  1.00  0.00    -0.284 A  
HETATM    4  C   UNL     1      -7.396  17.511  68.771  1.00  0.00    -0.260 A  
HETATM    5  O   UNL     1      -6.095  17.928  68.836  1.00  0.00    -0.192 OA 
HETATM    6  C   UNL     1      -7.707  16.245  69.260  1.00  0.00    -0.186 A  
HETATM    7  C   UNL     1      -9.021  15.784  69.166  1.00  0.00    -0.256 A  
HETATM    8  H   UNL     1      -5.432  17.373  69.228  1.00  0.00     0.000 HD 
HETATM    9  C   UNL     1     -10.021  16.592  68.612  1.00  0.00    -0.261 A  
HETATM   10  C   UNL     1      -9.690  17.878  68.150  1.00  0.00    -0.320 A  
BRANCH   9  11
HETATM   11  C   UNL     1     -11.427  16.087  68.422  1.00  0.00    -0.331 C  
BRANCH  11  12
HETATM   12  N   UNL     1     -11.472  14.660  68.308  1.00  0.00    -0.299 N  
HETATM   13  C   UNL     1     -12.027  13.873  69.290  1.00  0.00    -0.357 C  
HETATM   14  H   UNL     1     -11.082  14.215  67.476  1.00  0.00     0.000 HD 
HETATM   15  O   UNL     1     -12.531  14.305  70.310  1.00  0.00    -0.342 OA 
BRANCH  13  16
HETATM   16  C   UNL     1     -11.865  12.405  69.002  1.00  0.00    -0.349 C  
BRANCH  16  17
HETATM   17  C   UNL     1     -11.753  11.552  70.257  1.00  0.00    -0.379 C  
BRANCH  17  18
HETATM   18  C   UNL     1     -11.659  10.046  69.966  1.00  0.00    -0.279 C  
BRANCH  18  19
HETATM   19  C   UNL     1     -10.387   9.347  70.463  1.00  0.00    -0.341 C  
BRANCH  19  20
HETATM   20  C   UNL     1     -10.381   9.031  71.935  1.00  0.00    -0.357 C  
HETATM   21  C   UNL     1     -11.016   8.005  72.530  1.00  0.00    -0.430 C  
HETATM   22  C   UNL     1     -11.736   6.876  71.835  1.00  0.00    -0.334 C  
HETATM   23  C   UNL     1     -13.223   7.178  71.658  1.00  0.00    -0.403 C  
HETATM   24  C   UNL     1     -11.538   5.576  72.612  1.00  0.00    -0.293 C  
ENDBRANCH  19  20
ENDBRANCH  18  19
ENDBRANCH  17  18
ENDBRANCH  16  17
ENDBRANCH  13  16
ENDBRANCH  11  12
ENDBRANCH   9  11
ENDBRANCH   2   3
TORSDOF 8
ENDMDL
MODEL      191
REMARK 921   NORMALIZED FREE ENERGY PREDICTED BY IDOCK:   -4.31 KCAL/MOL
REMARK 922        TOTAL FREE ENERGY PREDICTED BY IDOCK:   -7.54 KCAL/MOL
REMARK 923 INTER-LIGAND FREE ENERGY PREDICTED BY IDOCK:   -6.58 KCAL/MOL
REMARK 924 INTRA-LIGAND FREE ENERGY PREDICTED BY IDOCK:   -0.96 KCAL/MOL
REMARK 927      BINDING AFFINITY PREDICTED BY RF-SCORE:    0.00 PKD
ROOT
HETATM    1  C   UNL     1      -9.921  10.996  63.284  1.00  0.00    -0.369 C  
HETATM    2  O   UNL     1     -11.133  11.749  63.220  1.00  0.00    -0.359 OA 
ENDROOT
BRANCH   2   3
HETATM    3  C   UNL     1     -11.516  12.297  64.416  1.00  0.00    -0.354 A  
HETATM    4  C   UNL     1     -12.161  13.532  64.360  1.00  0.00    -0.390 A  
HETATM    5  O   UNL     1     -12.384  14.140  63.155  1.00  0.00    -1.125 OA 
HETATM    6  C   UNL     1     -12.563  14.195  65.517  1.00  0.00    -0.501 A  
HETATM    7  C   UNL     1     -12.307  13.610  66.758  1.00  0.00    -0.354 A  
HETATM    8  H   UNL     1     -12.824  14.981  63.117  1.00  0.00     0.000 HD 
HETATM    9  C   UNL     1     -11.680  12.360  66.841  1.00  0.00    -0.432 A  
HETATM   10  C   UNL     1     -11.309  11.697  65.659  1.00  0.00    -0.233 A  
BRANCH   9  11
HETATM   11  C   UNL     1     -11.318  11.747  68.168  1.00  0.00    -0.284 C  
BRANCH  11  12
HETATM   12  N   UNL     1     -11.198  10.322  68.084  1.00  0.00    -0.453 N  
HETATM   13  C   UNL     1     -10.646   9.583  69.104  1.00  0.00    -0.222 C  
HETATM   14  H   UNL     1     -11.530   9.843  67.247  1.00  0.00     0.000 HD 
HETATM   15  O   UNL     1     -10.235  10.055  70.148  1.00  0.00    -0.262 OA 
BRANCH  13  16
HETATM   16  C   UNL     1     -10.527   8.125  68.749  1.00  0.00    -0.198 C  
BRANCH  16  17
HETATM   17  C   UNL     1      -9.100   7.599  68.824  1.00  0.00    -0.139 C  
BRANCH  17  18
HETATM   18  C   UNL     1      -8.151   8.263  67.816  1.00  0.00    -0.127 C  
BRANCH  18  19
HETATM   19  C   UNL     1      -7.529   7.331  66.768  1.00  0.00    -0.092 C  
BRANCH  19  20
HETATM   20  C   UNL     1      -8.525   6.533  65.970  1.00  0.00    -0.145 C  
HETATM   21  C   UNL     1      -8.813   5.229  66.133  1.00  0.00    -0.135 C  
HETATM   22  C   UNL     1      -8.314   4.336  67.241  1.00  0.00    -0.100 C  
HETATM   23  C   UNL     1      -7.038   3.598  66.841  1.00  0.00    -0.063 C  
HETATM   24  C   UNL     1      -9.405   3.346  67.644  1.00  0.00    -0.246 C  
ENDBRANCH  19  20
ENDBRANCH  18  19
ENDBRANCH  17  18
ENDBRANCH  16  17
ENDBRANCH  13  16
ENDBRANCH  11  12
ENDBRANCH   9  11
ENDBRANCH   2   3
TORSDOF 8
ENDMDL
MODEL      192
REMARK 921   NORMALIZED FREE ENERGY PREDICTED BY IDOCK:   -4.30 KCAL/MOL
REMARK 922        TOTAL FREE ENERGY PREDICTED BY IDOCK:   -7.53 KCAL/MOL
REMARK 923 INTER-LIGAND FREE ENERGY PREDICTED BY IDOCK:   -6.63 KCAL/MOL
REMARK 924 INTRA-LIGAND FREE ENERGY PREDICTED BY IDOCK:   -0.91 KCAL/MOL
REMARK 927      BINDING AFFINITY PREDICTED BY RF-SCORE:    0.00 PKD
ROOT
HETATM    1  C   UNL     1     -12.403  12.199  71.029  1.00  0.00    -0.230 C  
HETATM    2  O   UNL     1     -13.015  11.185  71.829  1.00  0.00    -0.451 OA 
ENDROOT
BRANCH   2   3
HETATM    3  C   UNL     1     -12.653   9.909  71.487  1.00  0.00    -0.416 A  
HETATM    4  C   UNL     1     -13.235   8.876  72.223  1.00  0.00    -0.447 A  
HETATM    5  O   UNL     1     -14.116   9.158  73.230  1.00  0.00    -1.165 OA 
HETATM    6  C   UNL     1     -12.914   7.543  71.982  1.00  0.00    -0.209 A  
HETATM    7  C   UNL     1     -11.985   7.238  70.986  1.00  0.00    -0.362 A  
HETATM    8  H   UNL     1     -14.513   8.455  73.731  1.00  0.00     0.000 HD 
HETATM    9  C   UNL     1     -11.403   8.254  70.218  1.00  0.00    -0.129 A  
HETATM   10  C   UNL     1     -11.764   9.591  70.461  1.00  0.00    -0.285 A  
BRANCH   9  11
HETATM   11  C   UNL     1     -10.337   7.958  69.197  1.00  0.00    -0.219 C  
BRANCH  11  12
HETATM   12  N   UNL     1     -10.129   9.060  68.305  1.00  0.00    -0.185 N  
HETATM   13  C   UNL     1      -8.910   9.688  68.206  1.00  0.00    -0.120 C  
HETATM   14  H   UNL     1     -10.905   9.387  67.730  1.00  0.00     0.000 HD 
HETATM   15  O   UNL     1      -7.919   9.366  68.835  1.00  0.00    -0.085 OA 
BRANCH  13  16
HETATM   16  C   UNL     1      -8.958  10.881  67.289  1.00  0.00    -0.139 C  
BRANCH  16  17
HETATM   17  C   UNL     1     -10.342  11.505  67.182  1.00  0.00    -0.248 C  
BRANCH  17  18
HETATM   18  C   UNL     1     -10.312  13.011  66.884  1.00  0.00    -0.246 C  
BRANCH  18  19
HETATM   19  C   UNL     1     -10.634  13.934  68.067  1.00  0.00    -0.252 C  
BRANCH  19  20
HETATM   20  C   UNL     1      -9.519  14.870  68.452  1.00  0.00    -0.209 C  
HETATM   21  C   UNL     1      -9.425  16.172  68.127  1.00  0.00    -0.209 C  
HETATM   22  C   UNL     1     -10.486  17.000  67.445  1.00  0.00    -0.322 C  
HETATM   23  C   UNL     1     -10.303  17.016  65.929  1.00  0.00    -0.310 C  
HETATM   24  C   UNL     1     -10.476  18.421  68.004  1.00  0.00    -0.390 C  
ENDBRANCH  19  20
ENDBRANCH  18  19
ENDBRANCH  17  18
ENDBRANCH  16  17
ENDBRANCH  13  16
ENDBRANCH  11  12
ENDBRANCH   9  11
ENDBRANCH   2   3
TORSDOF 8
ENDMDL
MODEL      193
REMARK 921   NORMALIZED FREE ENERGY PREDICTED BY IDOCK:   -4.30 KCAL/MOL
REMARK 922        TOTAL FREE ENERGY PREDICTED BY IDOCK:   -7.52 KCAL/MOL
REMARK 923 INTER-LIGAND FREE ENERGY PREDICTED BY IDOCK:   -6.57 KCAL/MOL
REMARK 924 INTRA-LIGAND FREE ENERGY PREDICTED BY IDOCK:   -0.95 KCAL/MOL
REMARK 927      BINDING AFFINITY PREDICTED BY RF-SCORE:    0.00 PKD
ROOT
HETATM    1  C   UNL     1     -10.006  11.313  63.270  1.00  0.00    -0.393 C  
HETATM    2  O   UNL     1      -9.230  10.201  63.717  1.00  0.00    -0.243 OA 
ENDROOT
BRANCH   2   3
HETATM    3  C   UNL     1      -8.989  10.191  65.066  1.00  0.00    -0.195 A  
HETATM    4  C   UNL     1      -8.833   8.941  65.664  1.00  0.00    -0.191 A  
HETATM    5  O   UNL     1      -8.924   7.800  64.914  1.00  0.00    -0.358 OA 
HETATM    6  C   UNL     1      -8.619   8.814  67.034  1.00  0.00    -0.119 A  
HETATM    7  C   UNL     1      -8.566   9.964  67.823  1.00  0.00    -0.121 A  
HETATM    8  H   UNL     1      -8.817   6.949  65.322  1.00  0.00     0.000 HD 
HETATM    9  C   UNL     1      -8.697  11.232  67.243  1.00  0.00    -0.145 A  
HETATM   10  C   UNL     1      -8.885  11.337  65.854  1.00  0.00    -0.174 A  
BRANCH   9  11
HETATM   11  C   UNL     1      -8.727  12.482  68.082  1.00  0.00    -0.190 C  
BRANCH  11  12
HETATM   12  N   UNL     1     -10.010  12.690  68.686  1.00  0.00    -0.393 N  
HETATM   13  C   UNL     1     -10.906  13.603  68.182  1.00  0.00    -0.246 C  
HETATM   14  H   UNL     1     -10.264  12.147  69.511  1.00  0.00     0.000 HD 
HETATM   15  O   UNL     1     -10.705  14.288  67.195  1.00  0.00    -0.277 OA 
BRANCH  13  16
HETATM   16  C   UNL     1     -12.136  13.726  69.040  1.00  0.00    -0.359 C  
BRANCH  16  17
HETATM   17  C   UNL     1     -11.990  13.066  70.404  1.00  0.00    -0.337 C  
BRANCH  17  18
HETATM   18  C   UNL     1     -12.600  11.658  70.471  1.00  0.00    -0.264 C  
BRANCH  18  19
HETATM   19  C   UNL     1     -13.063  11.195  71.858  1.00  0.00    -0.513 C  
BRANCH  19  20
HETATM   20  C   UNL     1     -13.463   9.745  71.932  1.00  0.00    -0.485 C  
HETATM   21  C   UNL     1     -12.628   8.693  72.003  1.00  0.00    -0.434 C  
HETATM   22  C   UNL     1     -11.130   8.751  72.178  1.00  0.00    -0.406 C  
HETATM   23  C   UNL     1     -10.403   8.734  70.835  1.00  0.00    -0.281 C  
HETATM   24  C   UNL     1     -10.663   7.595  73.058  1.00  0.00    -0.449 C  
ENDBRANCH  19  20
ENDBRANCH  18  19
ENDBRANCH  17  18
ENDBRANCH  16  17
ENDBRANCH  13  16
ENDBRANCH  11  12
ENDBRANCH   9  11
ENDBRANCH   2   3
TORSDOF 8
ENDMDL
MODEL      194
REMARK 921   NORMALIZED FREE ENERGY PREDICTED BY IDOCK:   -4.30 KCAL/MOL
REMARK 922        TOTAL FREE ENERGY PREDICTED BY IDOCK:   -7.52 KCAL/MOL
REMARK 923 INTER-LIGAND FREE ENERGY PREDICTED BY IDOCK:   -6.39 KCAL/MOL
REMARK 924 INTRA-LIGAND FREE ENERGY PREDICTED BY IDOCK:   -1.13 KCAL/MOL
REMARK 927      BINDING AFFINITY PREDICTED BY RF-SCORE:    0.00 PKD
ROOT
HETATM    1  C   UNL     1     -10.225  18.887  68.221  1.00  0.00    -0.380 C  
HETATM    2  O   UNL     1      -9.261  17.850  68.406  1.00  0.00    -0.274 OA 
ENDROOT
BRANCH   2   3
HETATM    3  C   UNL     1      -9.485  16.734  67.643  1.00  0.00    -0.234 A  
HETATM    4  C   UNL     1      -8.645  15.644  67.868  1.00  0.00    -0.162 A  
HETATM    5  O   UNL     1      -7.656  15.717  68.809  1.00  0.00    -0.141 OA 
HETATM    6  C   UNL     1      -8.763  14.472  67.125  1.00  0.00    -0.237 A  
HETATM    7  C   UNL     1      -9.739  14.393  66.131  1.00  0.00    -0.335 A  
HETATM    8  H   UNL     1      -7.084  14.974  68.963  1.00  0.00     0.000 HD 
HETATM    9  C   UNL     1     -10.610  15.465  65.900  1.00  0.00    -0.349 A  
HETATM   10  C   UNL     1     -10.490  16.628  66.681  1.00  0.00    -0.258 A  
BRANCH   9  11
HETATM   11  C   UNL     1     -11.614  15.437  64.779  1.00  0.00    -0.286 C  
BRANCH  11  12
HETATM   12  N   UNL     1     -11.546  14.218  64.029  1.00  0.00    -0.639 N  
HETATM   13  C   UNL     1     -12.356  13.145  64.319  1.00  0.00    -0.351 C  
HETATM   14  H   UNL     1     -10.880  14.144  63.261  1.00  0.00     0.000 HD 
HETATM   15  O   UNL     1     -13.192  13.137  65.204  1.00  0.00    -0.683 OA 
BRANCH  13  16
HETATM   16  C   UNL     1     -12.032  11.944  63.473  1.00  0.00    -0.567 C  
BRANCH  16  17
HETATM   17  C   UNL     1     -10.565  11.541  63.530  1.00  0.00    -0.487 C  
BRANCH  17  18
HETATM   18  C   UNL     1     -10.128  11.022  64.907  1.00  0.00    -0.359 C  
BRANCH  18  19
HETATM   19  C   UNL     1      -8.747  10.353  64.963  1.00  0.00    -0.195 C  
BRANCH  19  20
HETATM   20  C   UNL     1      -7.825  10.910  66.014  1.00  0.00    -0.121 C  
HETATM   21  C   UNL     1      -7.123  10.198  66.914  1.00  0.00    -0.091 C  
HETATM   22  C   UNL     1      -6.993   8.696  66.959  1.00  0.00    -0.074 C  
HETATM   23  C   UNL     1      -8.045   8.065  67.870  1.00  0.00    -0.129 C  
HETATM   24  C   UNL     1      -5.587   8.307  67.410  1.00  0.00    -0.038 C  
ENDBRANCH  19  20
ENDBRANCH  18  19
ENDBRANCH  17  18
ENDBRANCH  16  17
ENDBRANCH  13  16
ENDBRANCH  11  12
ENDBRANCH   9  11
ENDBRANCH   2   3
TORSDOF 8
ENDMDL
MODEL      195
REMARK 921   NORMALIZED FREE ENERGY PREDICTED BY IDOCK:   -4.30 KCAL/MOL
REMARK 922        TOTAL FREE ENERGY PREDICTED BY IDOCK:   -7.52 KCAL/MOL
REMARK 923 INTER-LIGAND FREE ENERGY PREDICTED BY IDOCK:   -6.26 KCAL/MOL
REMARK 924 INTRA-LIGAND FREE ENERGY PREDICTED BY IDOCK:   -1.25 KCAL/MOL
REMARK 927      BINDING AFFINITY PREDICTED BY RF-SCORE:    0.00 PKD
ROOT
HETATM    1  C   UNL     1     -12.936  14.054  71.608  1.00  0.00    -0.352 C  
HETATM    2  O   UNL     1     -11.736  14.727  71.222  1.00  0.00    -0.322 OA 
ENDROOT
BRANCH   2   3
HETATM    3  C   UNL     1     -11.592  14.882  69.868  1.00  0.00    -0.289 A  
HETATM    4  C   UNL     1     -11.155  16.130  69.425  1.00  0.00    -0.335 A  
HETATM    5  O   UNL     1     -10.894  17.129  70.322  1.00  0.00    -0.251 OA 
HETATM    6  C   UNL     1     -11.006  16.407  68.069  1.00  0.00    -0.327 A  
HETATM    7  C   UNL     1     -11.309  15.414  67.136  1.00  0.00    -0.203 A  
HETATM    8  H   UNL     1     -10.595  17.978  70.021  1.00  0.00     0.000 HD 
HETATM    9  C   UNL     1     -11.728  14.146  67.555  1.00  0.00    -0.418 A  
HETATM   10  C   UNL     1     -11.844  13.880  68.930  1.00  0.00    -0.393 A  
BRANCH   9  11
HETATM   11  C   UNL     1     -12.140  13.086  66.568  1.00  0.00    -0.341 C  
BRANCH  11  12
HETATM   12  N   UNL     1     -11.068  12.729  65.687  1.00  0.00    -0.274 N  
HETATM   13  C   UNL     1     -11.188  12.841  64.322  1.00  0.00    -0.364 C  
HETATM   14  H   UNL     1     -10.194  12.384  66.082  1.00  0.00     0.000 HD 
HETATM   15  O   UNL     1     -12.181  13.256  63.753  1.00  0.00    -0.561 OA 
BRANCH  13  16
HETATM   16  C   UNL     1      -9.980  12.310  63.600  1.00  0.00    -0.289 C  
BRANCH  16  17
HETATM   17  C   UNL     1      -9.989  10.796  63.438  1.00  0.00    -0.385 C  
BRANCH  17  18
HETATM   18  C   UNL     1      -9.419  10.049  64.654  1.00  0.00    -0.367 C  
BRANCH  18  19
HETATM   19  C   UNL     1      -8.377  10.813  65.481  1.00  0.00    -0.129 C  
BRANCH  19  20
HETATM   20  C   UNL     1      -8.556  10.698  66.971  1.00  0.00    -0.128 C  
HETATM   21  C   UNL     1      -8.192  11.612  67.889  1.00  0.00    -0.141 C  
HETATM   22  C   UNL     1      -7.673  13.001  67.609  1.00  0.00    -0.161 C  
HETATM   23  C   UNL     1      -6.147  13.033  67.549  1.00  0.00    -0.129 C  
HETATM   24  C   UNL     1      -8.191  13.974  68.665  1.00  0.00    -0.103 C  
ENDBRANCH  19  20
ENDBRANCH  18  19
ENDBRANCH  17  18
ENDBRANCH  16  17
ENDBRANCH  13  16
ENDBRANCH  11  12
ENDBRANCH   9  11
ENDBRANCH   2   3
TORSDOF 8
ENDMDL
MODEL      196
REMARK 921   NORMALIZED FREE ENERGY PREDICTED BY IDOCK:   -4.29 KCAL/MOL
REMARK 922        TOTAL FREE ENERGY PREDICTED BY IDOCK:   -7.52 KCAL/MOL
REMARK 923 INTER-LIGAND FREE ENERGY PREDICTED BY IDOCK:   -6.47 KCAL/MOL
REMARK 924 INTRA-LIGAND FREE ENERGY PREDICTED BY IDOCK:   -1.04 KCAL/MOL
REMARK 927      BINDING AFFINITY PREDICTED BY RF-SCORE:    0.00 PKD
ROOT
HETATM    1  C   UNL     1     -12.536  12.180  63.403  1.00  0.00    -0.512 C  
HETATM    2  O   UNL     1     -12.956  12.399  64.751  1.00  0.00    -0.786 OA 
ENDROOT
BRANCH   2   3
HETATM    3  C   UNL     1     -11.927  12.472  65.652  1.00  0.00    -0.433 A  
HETATM    4  C   UNL     1     -11.922  13.576  66.506  1.00  0.00    -0.413 A  
HETATM    5  O   UNL     1     -12.907  14.520  66.420  1.00  0.00    -0.367 OA 
HETATM    6  C   UNL     1     -10.905  13.768  67.438  1.00  0.00    -0.285 A  
HETATM    7  C   UNL     1      -9.868  12.837  67.512  1.00  0.00    -0.211 A  
HETATM    8  H   UNL     1     -12.904  15.271  67.001  1.00  0.00     0.000 HD 
HETATM    9  C   UNL     1      -9.861  11.709  66.682  1.00  0.00    -0.223 A  
HETATM   10  C   UNL     1     -10.912  11.522  65.768  1.00  0.00    -0.305 A  
BRANCH   9  11
HETATM   11  C   UNL     1      -8.712  10.736  66.684  1.00  0.00    -0.147 C  
BRANCH  11  12
HETATM   12  N   UNL     1      -8.818   9.785  67.751  1.00  0.00    -0.129 N  
HETATM   13  C   UNL     1      -9.462   8.582  67.585  1.00  0.00    -0.145 C  
HETATM   14  H   UNL     1      -8.405  10.007  68.657  1.00  0.00     0.000 HD 
HETATM   15  O   UNL     1      -9.974   8.217  66.543  1.00  0.00    -0.256 OA 
BRANCH  13  16
HETATM   16  C   UNL     1      -9.541   7.797  68.867  1.00  0.00    -0.154 C  
BRANCH  16  17
HETATM   17  C   UNL     1      -9.606   8.675  70.110  1.00  0.00    -0.181 C  
BRANCH  17  18
HETATM   18  C   UNL     1     -11.032   9.114  70.473  1.00  0.00    -0.307 C  
BRANCH  18  19
HETATM   19  C   UNL     1     -11.698   8.341  71.619  1.00  0.00    -0.341 C  
BRANCH  19  20
HETATM   20  C   UNL     1     -10.830   8.153  72.834  1.00  0.00    -0.310 C  
HETATM   21  C   UNL     1     -10.308   6.991  73.266  1.00  0.00    -0.343 C  
HETATM   22  C   UNL     1     -10.355   5.667  72.543  1.00  0.00    -0.240 C  
HETATM   23  C   UNL     1     -11.558   4.830  72.973  1.00  0.00    -0.252 C  
HETATM   24  C   UNL     1      -9.055   4.900  72.775  1.00  0.00    -0.135 C  
ENDBRANCH  19  20
ENDBRANCH  18  19
ENDBRANCH  17  18
ENDBRANCH  16  17
ENDBRANCH  13  16
ENDBRANCH  11  12
ENDBRANCH   9  11
ENDBRANCH   2   3
TORSDOF 8
ENDMDL
MODEL      197
REMARK 921   NORMALIZED FREE ENERGY PREDICTED BY IDOCK:   -4.29 KCAL/MOL
REMARK 922        TOTAL FREE ENERGY PREDICTED BY IDOCK:   -7.51 KCAL/MOL
REMARK 923 INTER-LIGAND FREE ENERGY PREDICTED BY IDOCK:   -6.89 KCAL/MOL
REMARK 924 INTRA-LIGAND FREE ENERGY PREDICTED BY IDOCK:   -0.63 KCAL/MOL
REMARK 927      BINDING AFFINITY PREDICTED BY RF-SCORE:    0.00 PKD
ROOT
HETATM    1  C   UNL     1      -6.159  18.054  68.917  1.00  0.00    -0.212 C  
HETATM    2  O   UNL     1      -6.720  19.198  68.272  1.00  0.00    -0.238 OA 
ENDROOT
BRANCH   2   3
HETATM    3  C   UNL     1      -8.039  19.057  67.929  1.00  0.00    -0.278 A  
HETATM    4  C   UNL     1      -8.631  20.131  67.265  1.00  0.00    -0.343 A  
HETATM    5  O   UNL     1      -7.905  21.256  66.987  1.00  0.00    -0.717 OA 
HETATM    6  C   UNL     1      -9.975  20.107  66.900  1.00  0.00    -0.600 A  
HETATM    7  C   UNL     1     -10.744  18.985  67.212  1.00  0.00    -0.556 A  
HETATM    8  H   UNL     1      -8.308  21.987  66.534  1.00  0.00     0.000 HD 
HETATM    9  C   UNL     1     -10.168  17.884  67.859  1.00  0.00    -0.375 A  
HETATM   10  C   UNL     1      -8.803  17.920  68.192  1.00  0.00    -0.265 A  
BRANCH   9  11
HETATM   11  C   UNL     1     -10.994  16.699  68.281  1.00  0.00    -0.341 C  
BRANCH  11  12
HETATM   12  N   UNL     1     -10.299  15.462  68.078  1.00  0.00    -0.245 N  
HETATM   13  C   UNL     1     -10.868  14.419  67.386  1.00  0.00    -0.292 C  
HETATM   14  H   UNL     1      -9.358  15.353  68.455  1.00  0.00     0.000 HD 
HETATM   15  O   UNL     1     -11.977  14.453  66.884  1.00  0.00    -0.410 OA 
BRANCH  13  16
HETATM   16  C   UNL     1      -9.998  13.191  67.392  1.00  0.00    -0.229 C  
BRANCH  16  17
HETATM   17  C   UNL     1     -10.676  11.967  66.793  1.00  0.00    -0.282 C  
BRANCH  17  18
HETATM   18  C   UNL     1      -9.842  11.280  65.701  1.00  0.00    -0.277 C  
BRANCH  18  19
HETATM   19  C   UNL     1      -9.793   9.747  65.761  1.00  0.00    -0.360 C  
BRANCH  19  20
HETATM   20  C   UNL     1     -10.379   9.152  67.013  1.00  0.00    -0.333 C  
HETATM   21  C   UNL     1      -9.751   8.328  67.871  1.00  0.00    -0.192 C  
HETATM   22  C   UNL     1      -8.290   7.952  67.841  1.00  0.00    -0.126 C  
HETATM   23  C   UNL     1      -8.053   6.667  67.050  1.00  0.00    -0.113 C  
HETATM   24  C   UNL     1      -7.758   7.814  69.266  1.00  0.00    -0.100 C  
ENDBRANCH  19  20
ENDBRANCH  18  19
ENDBRANCH  17  18
ENDBRANCH  16  17
ENDBRANCH  13  16
ENDBRANCH  11  12
ENDBRANCH   9  11
ENDBRANCH   2   3
TORSDOF 8
ENDMDL
MODEL      198
REMARK 921   NORMALIZED FREE ENERGY PREDICTED BY IDOCK:   -4.28 KCAL/MOL
REMARK 922        TOTAL FREE ENERGY PREDICTED BY IDOCK:   -7.50 KCAL/MOL
REMARK 923 INTER-LIGAND FREE ENERGY PREDICTED BY IDOCK:   -5.96 KCAL/MOL
REMARK 924 INTRA-LIGAND FREE ENERGY PREDICTED BY IDOCK:   -1.53 KCAL/MOL
REMARK 927      BINDING AFFINITY PREDICTED BY RF-SCORE:    0.00 PKD
ROOT
HETATM    1  C   UNL     1     -12.653  14.596  64.499  1.00  0.00    -0.152 C  
HETATM    2  O   UNL     1     -12.500  13.211  64.812  1.00  0.00    -0.485 OA 
ENDROOT
BRANCH   2   3
HETATM    3  C   UNL     1     -11.627  12.962  65.839  1.00  0.00    -0.377 A  
HETATM    4  C   UNL     1     -10.268  12.997  65.526  1.00  0.00    -0.285 A  
HETATM    5  O   UNL     1      -9.860  13.267  64.249  1.00  0.00    -0.676 OA 
HETATM    6  C   UNL     1      -9.296  12.726  66.485  1.00  0.00    -0.221 A  
HETATM    7  C   UNL     1      -9.693  12.408  67.784  1.00  0.00    -0.201 A  
HETATM    8  H   UNL     1      -8.935  13.291  64.036  1.00  0.00     0.000 HD 
HETATM    9  C   UNL     1     -11.050  12.388  68.130  1.00  0.00    -0.288 A  
HETATM   10  C   UNL     1     -12.013  12.691  67.152  1.00  0.00    -0.326 A  
BRANCH   9  11
HETATM   11  C   UNL     1     -11.508  11.965  69.500  1.00  0.00    -0.288 C  
BRANCH  11  12
HETATM   12  N   UNL     1     -11.847  10.574  69.546  1.00  0.00    -0.445 N  
HETATM   13  C   UNL     1     -10.937   9.622  69.941  1.00  0.00    -0.252 C  
HETATM   14  H   UNL     1     -12.788  10.283  69.280  1.00  0.00     0.000 HD 
HETATM   15  O   UNL     1      -9.797   9.866  70.292  1.00  0.00    -0.253 OA 
BRANCH  13  16
HETATM   16  C   UNL     1     -11.482   8.225  69.808  1.00  0.00     0.254 C  
BRANCH  16  17
HETATM   17  C   UNL     1     -10.400   7.155  69.773  1.00  0.00    -0.224 C  
BRANCH  17  18
HETATM   18  C   UNL     1     -10.793   5.915  68.955  1.00  0.00    -0.383 C  
BRANCH  18  19
HETATM   19  C   UNL     1     -10.952   6.133  67.444  1.00  0.00    -0.409 C  
BRANCH  19  20
HETATM   20  C   UNL     1      -9.661   6.106  66.670  1.00  0.00    -0.181 C  
HETATM   21  C   UNL     1      -8.907   7.172  66.344  1.00  0.00    -0.161 C  
HETATM   22  C   UNL     1      -9.115   8.590  66.813  1.00  0.00    -0.186 C  
HETATM   23  C   UNL     1      -9.969   9.391  65.832  1.00  0.00    -0.327 C  
HETATM   24  C   UNL     1      -7.765   9.270  67.032  1.00  0.00    -0.095 C  
ENDBRANCH  19  20
ENDBRANCH  18  19
ENDBRANCH  17  18
ENDBRANCH  16  17
ENDBRANCH  13  16
ENDBRANCH  11  12
ENDBRANCH   9  11
ENDBRANCH   2   3
TORSDOF 8
ENDMDL
MODEL      199
REMARK 921   NORMALIZED FREE ENERGY PREDICTED BY IDOCK:   -4.27 KCAL/MOL
REMARK 922        TOTAL FREE ENERGY PREDICTED BY IDOCK:   -7.48 KCAL/MOL
REMARK 923 INTER-LIGAND FREE ENERGY PREDICTED BY IDOCK:   -6.27 KCAL/MOL
REMARK 924 INTRA-LIGAND FREE ENERGY PREDICTED BY IDOCK:   -1.21 KCAL/MOL
REMARK 927      BINDING AFFINITY PREDICTED BY RF-SCORE:    0.00 PKD
ROOT
HETATM    1  C   UNL     1     -13.805   8.926  72.563  1.00  0.00    -0.407 C  
HETATM    2  O   UNL     1     -12.536   8.320  72.310  1.00  0.00    -0.334 OA 
ENDROOT
BRANCH   2   3
HETATM    3  C   UNL     1     -11.808   8.937  71.327  1.00  0.00    -0.310 A  
HETATM    4  C   UNL     1     -10.551   8.398  71.049  1.00  0.00    -0.214 A  
HETATM    5  O   UNL     1     -10.098   7.311  71.743  1.00  0.00    -0.180 OA 
HETATM    6  C   UNL     1      -9.714   8.967  70.093  1.00  0.00    -0.199 A  
HETATM    7  C   UNL     1     -10.142  10.102  69.404  1.00  0.00    -0.250 A  
HETATM    8  H   UNL     1      -9.242   6.944  71.554  1.00  0.00     0.000 HD 
HETATM    9  C   UNL     1     -11.407  10.650  69.649  1.00  0.00    -0.360 A  
HETATM   10  C   UNL     1     -12.247  10.043  70.599  1.00  0.00    -0.360 A  
BRANCH   9  11
HETATM   11  C   UNL     1     -11.858  11.921  68.981  1.00  0.00    -0.308 C  
BRANCH  11  12
HETATM   12  N   UNL     1     -10.862  12.441  68.091  1.00  0.00    -0.212 N  
HETATM   13  C   UNL     1     -11.195  12.986  66.874  1.00  0.00    -0.295 C  
HETATM   14  H   UNL     1      -9.881  12.406  68.368  1.00  0.00     0.000 HD 
HETATM   15  O   UNL     1     -12.334  13.089  66.457  1.00  0.00    -0.399 OA 
BRANCH  13  16
HETATM   16  C   UNL     1      -9.981  13.366  66.070  1.00  0.00    -0.300 C  
BRANCH  16  17
HETATM   17  C   UNL     1     -10.047  14.779  65.505  1.00  0.00    -0.409 C  
BRANCH  17  18
HETATM   18  C   UNL     1      -9.013  15.732  66.122  1.00  0.00    -0.372 C  
BRANCH  18  19
HETATM   19  C   UNL     1      -8.610  15.434  67.573  1.00  0.00    -0.187 C  
BRANCH  19  20
HETATM   20  C   UNL     1      -8.815  16.581  68.526  1.00  0.00    -0.228 C  
HETATM   21  C   UNL     1      -9.819  16.710  69.411  1.00  0.00    -0.124 C  
HETATM   22  C   UNL     1     -10.860  15.668  69.740  1.00  0.00    -0.310 C  
HETATM   23  C   UNL     1     -12.116  15.835  68.888  1.00  0.00    -0.139 C  
HETATM   24  C   UNL     1     -11.205  15.727  71.226  1.00  0.00    -0.376 C  
ENDBRANCH  19  20
ENDBRANCH  18  19
ENDBRANCH  17  18
ENDBRANCH  16  17
ENDBRANCH  13  16
ENDBRANCH  11  12
ENDBRANCH   9  11
ENDBRANCH   2   3
TORSDOF 8
ENDMDL
MODEL      200
REMARK 921   NORMALIZED FREE ENERGY PREDICTED BY IDOCK:   -4.27 KCAL/MOL
REMARK 922        TOTAL FREE ENERGY PREDICTED BY IDOCK:   -7.48 KCAL/MOL
REMARK 923 INTER-LIGAND FREE ENERGY PREDICTED BY IDOCK:   -6.40 KCAL/MOL
REMARK 924 INTRA-LIGAND FREE ENERGY PREDICTED BY IDOCK:   -1.08 KCAL/MOL
REMARK 927      BINDING AFFINITY PREDICTED BY RF-SCORE:    0.00 PKD
ROOT
HETATM    1  C   UNL     1      -5.513  17.562  68.190  1.00  0.00    -0.142 C  
HETATM    2  O   UNL     1      -6.482  18.583  67.943  1.00  0.00    -0.203 OA 
ENDROOT
BRANCH   2   3
HETATM    3  C   UNL     1      -7.759  18.115  67.777  1.00  0.00    -0.227 A  
HETATM    4  C   UNL     1      -8.782  18.875  68.344  1.00  0.00    -0.345 A  
HETATM    5  O   UNL     1      -8.491  20.024  69.027  1.00  0.00    -0.029 OA 
HETATM    6  C   UNL     1     -10.113  18.474  68.265  1.00  0.00    -0.424 A  
HETATM    7  C   UNL     1     -10.425  17.283  67.609  1.00  0.00    -0.363 A  
HETATM    8  H   UNL     1      -9.188  20.542  69.412  1.00  0.00     0.000 HD 
HETATM    9  C   UNL     1      -9.420  16.512  67.012  1.00  0.00    -0.249 A  
HETATM   10  C   UNL     1      -8.086  16.951  67.081  1.00  0.00    -0.214 A  
BRANCH   9  11
HETATM   11  C   UNL     1      -9.720  15.183  66.373  1.00  0.00    -0.278 C  
BRANCH  11  12
HETATM   12  N   UNL     1     -10.570  14.373  67.195  1.00  0.00    -0.275 N  
HETATM   13  C   UNL     1     -10.072  13.641  68.247  1.00  0.00    -0.240 C  
HETATM   14  H   UNL     1     -11.569  14.340  66.996  1.00  0.00     0.000 HD 
HETATM   15  O   UNL     1      -8.900  13.624  68.577  1.00  0.00    -0.169 OA 
BRANCH  13  16
HETATM   16  C   UNL     1     -11.128  12.788  68.896  1.00  0.00    -0.310 C  
BRANCH  16  17
HETATM   17  C   UNL     1     -11.606  11.642  68.015  1.00  0.00    -0.383 C  
BRANCH  17  18
HETATM   18  C   UNL     1     -10.464  10.759  67.489  1.00  0.00    -0.260 C  
BRANCH  18  19
HETATM   19  C   UNL     1     -10.505  10.437  65.989  1.00  0.00    -0.211 C  
BRANCH  19  20
HETATM   20  C   UNL     1      -9.883  11.487  65.107  1.00  0.00    -0.294 C  
HETATM   21  C   UNL     1     -10.542  12.408  64.382  1.00  0.00    -0.366 C  
HETATM   22  C   UNL     1     -12.026  12.680  64.419  1.00  0.00    -0.469 C  
HETATM   23  C   UNL     1     -12.774  11.881  63.354  1.00  0.00    -0.496 C  
HETATM   24  C   UNL     1     -12.286  14.176  64.252  1.00  0.00    -0.449 C  
ENDBRANCH  19  20
ENDBRANCH  18  19
ENDBRANCH  17  18
ENDBRANCH  16  17
ENDBRANCH  13  16
ENDBRANCH  11  12
ENDBRANCH   9  11
ENDBRANCH   2   3
TORSDOF 8
ENDMDL
MODEL      201
REMARK 921   NORMALIZED FREE ENERGY PREDICTED BY IDOCK:   -4.27 KCAL/MOL
REMARK 922        TOTAL FREE ENERGY PREDICTED BY IDOCK:   -7.47 KCAL/MOL
REMARK 923 INTER-LIGAND FREE ENERGY PREDICTED BY IDOCK:   -6.90 KCAL/MOL
REMARK 924 INTRA-LIGAND FREE ENERGY PREDICTED BY IDOCK:   -0.57 KCAL/MOL
REMARK 927      BINDING AFFINITY PREDICTED BY RF-SCORE:    0.00 PKD
ROOT
HETATM    1  C   UNL     1     -12.551  11.818  63.719  1.00  0.00    -0.302 C  
HETATM    2  O   UNL     1     -13.135  12.513  64.822  1.00  0.00    -0.853 OA 
ENDROOT
BRANCH   2   3
HETATM    3  C   UNL     1     -12.224  13.015  65.713  1.00  0.00    -0.453 A  
HETATM    4  C   UNL     1     -11.678  14.263  65.412  1.00  0.00    -0.354 A  
HETATM    5  O   UNL     1     -12.052  14.925  64.276  1.00  0.00    -0.599 OA 
HETATM    6  C   UNL     1     -10.718  14.851  66.232  1.00  0.00    -0.320 A  
HETATM    7  C   UNL     1     -10.291  14.172  67.374  1.00  0.00    -0.256 A  
HETATM    8  H   UNL     1     -11.681  15.775  64.071  1.00  0.00     0.000 HD 
HETATM    9  C   UNL     1     -10.840  12.928  67.710  1.00  0.00    -0.248 A  
HETATM   10  C   UNL     1     -11.828  12.367  66.883  1.00  0.00    -0.377 A  
BRANCH   9  11
HETATM   11  C   UNL     1     -10.337  12.139  68.889  1.00  0.00    -0.073 C  
BRANCH  11  12
HETATM   12  N   UNL     1     -11.406  11.721  69.748  1.00  0.00    -0.462 N  
HETATM   13  C   UNL     1     -11.664  10.391  69.984  1.00  0.00    -0.286 C  
HETATM   14  H   UNL     1     -11.989  12.427  70.196  1.00  0.00     0.000 HD 
HETATM   15  O   UNL     1     -11.020   9.473  69.511  1.00  0.00    -0.238 OA 
BRANCH  13  16
HETATM   16  C   UNL     1     -12.895  10.192  70.828  1.00  0.00    -0.388 C  
BRANCH  16  17
HETATM   17  C   UNL     1     -12.584   9.796  72.265  1.00  0.00    -0.264 C  
BRANCH  17  18
HETATM   18  C   UNL     1     -12.351   8.288  72.445  1.00  0.00    -0.385 C  
BRANCH  18  19
HETATM   19  C   UNL     1     -11.005   7.889  73.065  1.00  0.00    -0.398 C  
BRANCH  19  20
HETATM   20  C   UNL     1     -10.433   6.599  72.540  1.00  0.00    -0.231 C  
HETATM   21  C   UNL     1      -9.183   6.413  72.078  1.00  0.00    -0.148 C  
HETATM   22  C   UNL     1      -8.054   7.412  72.130  1.00  0.00    -0.107 C  
HETATM   23  C   UNL     1      -7.978   8.248  70.854  1.00  0.00    -0.101 C  
HETATM   24  C   UNL     1      -6.732   6.690  72.382  1.00  0.00    -0.063 C  
ENDBRANCH  19  20
ENDBRANCH  18  19
ENDBRANCH  17  18
ENDBRANCH  16  17
ENDBRANCH  13  16
ENDBRANCH  11  12
ENDBRANCH   9  11
ENDBRANCH   2   3
TORSDOF 8
ENDMDL
MODEL      202
REMARK 921   NORMALIZED FREE ENERGY PREDICTED BY IDOCK:   -4.26 KCAL/MOL
REMARK 922        TOTAL FREE ENERGY PREDICTED BY IDOCK:   -7.46 KCAL/MOL
REMARK 923 INTER-LIGAND FREE ENERGY PREDICTED BY IDOCK:   -7.11 KCAL/MOL
REMARK 924 INTRA-LIGAND FREE ENERGY PREDICTED BY IDOCK:   -0.35 KCAL/MOL
REMARK 927      BINDING AFFINITY PREDICTED BY RF-SCORE:    0.00 PKD
ROOT
HETATM    1  C   UNL     1     -12.542  11.785  63.334  1.00  0.00    -0.336 C  
HETATM    2  O   UNL     1     -13.086  12.298  64.552  1.00  0.00    -0.791 OA 
ENDROOT
BRANCH   2   3
HETATM    3  C   UNL     1     -12.217  13.079  65.267  1.00  0.00    -0.466 A  
HETATM    4  C   UNL     1     -12.027  14.383  64.809  1.00  0.00    -0.447 A  
HETATM    5  O   UNL     1     -12.687  14.828  63.697  1.00  0.00    -0.903 OA 
HETATM    6  C   UNL     1     -11.141  15.252  65.441  1.00  0.00    -0.351 A  
HETATM    7  C   UNL     1     -10.426  14.803  66.552  1.00  0.00    -0.291 A  
HETATM    8  H   UNL     1     -12.558  15.716  63.386  1.00  0.00     0.000 HD 
HETATM    9  C   UNL     1     -10.615  13.506  67.046  1.00  0.00    -0.269 A  
HETATM   10  C   UNL     1     -11.535  12.656  66.408  1.00  0.00    -0.409 A  
BRANCH   9  11
HETATM   11  C   UNL     1      -9.796  12.971  68.190  1.00  0.00    -0.228 C  
BRANCH  11  12
HETATM   12  N   UNL     1     -10.582  12.173  69.084  1.00  0.00    -0.427 N  
HETATM   13  C   UNL     1     -10.298  10.846  69.306  1.00  0.00    -0.187 C  
HETATM   14  H   UNL     1     -11.371  12.600  69.568  1.00  0.00     0.000 HD 
HETATM   15  O   UNL     1      -9.371  10.248  68.791  1.00  0.00    -0.150 OA 
BRANCH  13  16
HETATM   16  C   UNL     1     -11.318  10.188  70.196  1.00  0.00    -0.372 C  
BRANCH  16  17
HETATM   17  C   UNL     1     -10.706   9.242  71.220  1.00  0.00    -0.422 C  
BRANCH  17  18
HETATM   18  C   UNL     1     -11.150   7.782  71.044  1.00  0.00    -0.273 C  
BRANCH  18  19
HETATM   19  C   UNL     1     -10.110   6.718  71.418  1.00  0.00    -0.198 C  
BRANCH  19  20
HETATM   20  C   UNL     1      -9.023   6.520  70.396  1.00  0.00    -0.152 C  
HETATM   21  C   UNL     1      -8.461   5.348  70.048  1.00  0.00    -0.111 C  
HETATM   22  C   UNL     1      -8.906   3.978  70.494  1.00  0.00    -0.136 C  
HETATM   23  C   UNL     1      -8.154   3.516  71.741  1.00  0.00    -0.062 C  
HETATM   24  C   UNL     1      -8.729   2.976  69.355  1.00  0.00    -0.131 C  
ENDBRANCH  19  20
ENDBRANCH  18  19
ENDBRANCH  17  18
ENDBRANCH  16  17
ENDBRANCH  13  16
ENDBRANCH  11  12
ENDBRANCH   9  11
ENDBRANCH   2   3
TORSDOF 8
ENDMDL
MODEL      203
REMARK 921   NORMALIZED FREE ENERGY PREDICTED BY IDOCK:   -4.25 KCAL/MOL
REMARK 922        TOTAL FREE ENERGY PREDICTED BY IDOCK:   -7.46 KCAL/MOL
REMARK 923 INTER-LIGAND FREE ENERGY PREDICTED BY IDOCK:   -6.27 KCAL/MOL
REMARK 924 INTRA-LIGAND FREE ENERGY PREDICTED BY IDOCK:   -1.18 KCAL/MOL
REMARK 927      BINDING AFFINITY PREDICTED BY RF-SCORE:    0.00 PKD
ROOT
HETATM    1  C   UNL     1      -7.674   9.918  65.280  1.00  0.00    -0.129 C  
HETATM    2  O   UNL     1      -9.034   9.499  65.149  1.00  0.00    -0.182 OA 
ENDROOT
BRANCH   2   3
HETATM    3  C   UNL     1      -9.937  10.530  65.120  1.00  0.00    -0.309 A  
HETATM    4  C   UNL     1     -10.393  10.926  63.863  1.00  0.00    -0.329 A  
HETATM    5  O   UNL     1      -9.941  10.299  62.735  1.00  0.00    -0.579 OA 
HETATM    6  C   UNL     1     -11.286  11.984  63.715  1.00  0.00    -0.516 A  
HETATM    7  C   UNL     1     -11.726  12.664  64.851  1.00  0.00    -0.399 A  
HETATM    8  H   UNL     1     -10.252  10.568  61.879  1.00  0.00     0.000 HD 
HETATM    9  C   UNL     1     -11.301  12.272  66.127  1.00  0.00    -0.402 A  
HETATM   10  C   UNL     1     -10.421  11.183  66.253  1.00  0.00    -0.312 A  
BRANCH   9  11
HETATM   11  C   UNL     1     -11.695  13.041  67.359  1.00  0.00    -0.374 C  
BRANCH  11  12
HETATM   12  N   UNL     1     -11.314  14.420  67.275  1.00  0.00    -0.327 N  
HETATM   13  C   UNL     1     -11.378  15.255  68.366  1.00  0.00    -0.329 C  
HETATM   14  H   UNL     1     -10.987  14.791  66.383  1.00  0.00     0.000 HD 
HETATM   15  O   UNL     1     -11.739  14.907  69.475  1.00  0.00    -0.285 OA 
BRANCH  13  16
HETATM   16  C   UNL     1     -11.033  16.677  68.014  1.00  0.00    -0.311 C  
BRANCH  16  17
HETATM   17  C   UNL     1      -9.563  17.012  68.226  1.00  0.00    -0.273 C  
BRANCH  17  18
HETATM   18  C   UNL     1      -8.832  17.402  66.933  1.00  0.00    -0.259 C  
BRANCH  18  19
HETATM   19  C   UNL     1      -7.447  16.773  66.731  1.00  0.00    -0.279 C  
BRANCH  19  20
HETATM   20  C   UNL     1      -6.729  16.419  68.007  1.00  0.00    -0.145 C  
HETATM   21  C   UNL     1      -6.377  15.184  68.404  1.00  0.00    -0.109 C  
HETATM   22  C   UNL     1      -6.489  13.918  67.591  1.00  0.00    -0.161 C  
HETATM   23  C   UNL     1      -7.810  13.196  67.847  1.00  0.00    -0.151 C  
HETATM   24  C   UNL     1      -5.306  13.000  67.889  1.00  0.00    -0.113 C  
ENDBRANCH  19  20
ENDBRANCH  18  19
ENDBRANCH  17  18
ENDBRANCH  16  17
ENDBRANCH  13  16
ENDBRANCH  11  12
ENDBRANCH   9  11
ENDBRANCH   2   3
TORSDOF 8
ENDMDL
MODEL      204
REMARK 921   NORMALIZED FREE ENERGY PREDICTED BY IDOCK:   -4.25 KCAL/MOL
REMARK 922        TOTAL FREE ENERGY PREDICTED BY IDOCK:   -7.45 KCAL/MOL
REMARK 923 INTER-LIGAND FREE ENERGY PREDICTED BY IDOCK:   -5.77 KCAL/MOL
REMARK 924 INTRA-LIGAND FREE ENERGY PREDICTED BY IDOCK:   -1.68 KCAL/MOL
REMARK 927      BINDING AFFINITY PREDICTED BY RF-SCORE:    0.00 PKD
ROOT
HETATM    1  C   UNL     1     -13.134  11.620  71.591  1.00  0.00    -0.351 C  
HETATM    2  O   UNL     1     -13.086  10.355  70.928  1.00  0.00    -0.384 OA 
ENDROOT
BRANCH   2   3
HETATM    3  C   UNL     1     -12.021   9.574  71.290  1.00  0.00    -0.365 A  
HETATM    4  C   UNL     1     -12.270   8.571  72.227  1.00  0.00    -0.389 A  
HETATM    5  O   UNL     1     -13.525   8.405  72.743  1.00  0.00    -0.621 OA 
HETATM    6  C   UNL     1     -11.252   7.742  72.690  1.00  0.00    -0.438 A  
HETATM    7  C   UNL     1      -9.955   7.923  72.208  1.00  0.00    -0.280 A  
HETATM    8  H   UNL     1     -13.695   7.722  73.381  1.00  0.00     0.000 HD 
HETATM    9  C   UNL     1      -9.683   8.907  71.249  1.00  0.00    -0.359 A  
HETATM   10  C   UNL     1     -10.731   9.715  70.776  1.00  0.00    -0.401 A  
BRANCH   9  11
HETATM   11  C   UNL     1      -8.280   9.179  70.776  1.00  0.00    -0.190 C  
BRANCH  11  12
HETATM   12  N   UNL     1      -7.879   8.273  69.740  1.00  0.00    -0.098 N  
HETATM   13  C   UNL     1      -6.693   8.430  69.062  1.00  0.00    -0.052 C  
HETATM   14  H   UNL     1      -8.489   7.492  69.500  1.00  0.00     0.000 HD 
HETATM   15  O   UNL     1      -5.890   9.318  69.283  1.00  0.00    -0.035 OA 
BRANCH  13  16
HETATM   16  C   UNL     1      -6.537   7.427  67.951  1.00  0.00    -0.054 C  
BRANCH  16  17
HETATM   17  C   UNL     1      -6.636   8.043  66.562  1.00  0.00    -0.055 C  
BRANCH  17  18
HETATM   18  C   UNL     1      -7.706   9.140  66.456  1.00  0.00    -0.096 C  
BRANCH  18  19
HETATM   19  C   UNL     1      -9.029   8.722  65.800  1.00  0.00    -0.253 C  
BRANCH  19  20
HETATM   20  C   UNL     1     -10.243   8.898  66.673  1.00  0.00    -0.338 C  
HETATM   21  C   UNL     1     -10.824   7.948  67.427  1.00  0.00    -0.172 C  
HETATM   22  C   UNL     1     -10.296   6.556  67.674  1.00  0.00    -0.239 C  
HETATM   23  C   UNL     1     -10.862   5.551  66.673  1.00  0.00    -0.257 C  
HETATM   24  C   UNL     1     -10.610   6.126  69.105  1.00  0.00    -0.345 C  
ENDBRANCH  19  20
ENDBRANCH  18  19
ENDBRANCH  17  18
ENDBRANCH  16  17
ENDBRANCH  13  16
ENDBRANCH  11  12
ENDBRANCH   9  11
ENDBRANCH   2   3
TORSDOF 8
ENDMDL
MODEL      205
REMARK 921   NORMALIZED FREE ENERGY PREDICTED BY IDOCK:   -4.25 KCAL/MOL
REMARK 922        TOTAL FREE ENERGY PREDICTED BY IDOCK:   -7.45 KCAL/MOL
REMARK 923 INTER-LIGAND FREE ENERGY PREDICTED BY IDOCK:   -6.45 KCAL/MOL
REMARK 924 INTRA-LIGAND FREE ENERGY PREDICTED BY IDOCK:   -0.99 KCAL/MOL
REMARK 927      BINDING AFFINITY PREDICTED BY RF-SCORE:    0.00 PKD
ROOT
HETATM    1  C   UNL     1      -6.727  15.254  69.048  1.00  0.00    -0.122 C  
HETATM    2  O   UNL     1      -7.935  16.007  69.167  1.00  0.00    -0.219 OA 
ENDROOT
BRANCH   2   3
HETATM    3  C   UNL     1      -8.896  15.674  68.249  1.00  0.00    -0.180 A  
HETATM    4  C   UNL     1      -9.042  16.530  67.157  1.00  0.00    -0.213 A  
HETATM    5  O   UNL     1      -8.251  17.639  67.040  1.00  0.00    -0.207 OA 
HETATM    6  C   UNL     1     -10.010  16.304  66.182  1.00  0.00    -0.355 A  
HETATM    7  C   UNL     1     -10.855  15.200  66.307  1.00  0.00    -0.333 A  
HETATM    8  H   UNL     1      -8.350  18.222  66.296  1.00  0.00     0.000 HD 
HETATM    9  C   UNL     1     -10.715  14.313  67.382  1.00  0.00    -0.282 A  
HETATM   10  C   UNL     1      -9.712  14.546  68.339  1.00  0.00    -0.224 A  
BRANCH   9  11
HETATM   11  C   UNL     1     -11.667  13.164  67.584  1.00  0.00    -0.369 C  
BRANCH  11  12
HETATM   12  N   UNL     1     -10.992  11.901  67.565  1.00  0.00    -0.233 N  
HETATM   13  C   UNL     1     -10.740  11.234  66.389  1.00  0.00    -0.267 C  
HETATM   14  H   UNL     1     -10.690  11.485  68.446  1.00  0.00     0.000 HD 
HETATM   15  O   UNL     1     -11.045  11.650  65.286  1.00  0.00    -0.292 OA 
BRANCH  13  16
HETATM   16  C   UNL     1     -10.120   9.883  66.623  1.00  0.00    -0.297 C  
BRANCH  16  17
HETATM   17  C   UNL     1     -10.643   9.185  67.870  1.00  0.00    -0.272 C  
BRANCH  17  18
HETATM   18  C   UNL     1      -9.551   8.892  68.910  1.00  0.00    -0.160 C  
BRANCH  18  19
HETATM   19  C   UNL     1      -9.630   9.703  70.210  1.00  0.00    -0.307 C  
BRANCH  19  20
HETATM   20  C   UNL     1     -10.048   8.908  71.419  1.00  0.00    -0.379 C  
HETATM   21  C   UNL     1     -11.300   8.782  71.894  1.00  0.00    -0.431 C  
HETATM   22  C   UNL     1     -12.560   9.282  71.233  1.00  0.00    -0.377 C  
HETATM   23  C   UNL     1     -12.939  10.679  71.719  1.00  0.00    -0.577 C  
HETATM   24  C   UNL     1     -13.702   8.298  71.478  1.00  0.00    -0.354 C  
ENDBRANCH  19  20
ENDBRANCH  18  19
ENDBRANCH  17  18
ENDBRANCH  16  17
ENDBRANCH  13  16
ENDBRANCH  11  12
ENDBRANCH   9  11
ENDBRANCH   2   3
TORSDOF 8
ENDMDL
MODEL      206
REMARK 921   NORMALIZED FREE ENERGY PREDICTED BY IDOCK:   -4.23 KCAL/MOL
REMARK 922        TOTAL FREE ENERGY PREDICTED BY IDOCK:   -7.42 KCAL/MOL
REMARK 923 INTER-LIGAND FREE ENERGY PREDICTED BY IDOCK:   -5.61 KCAL/MOL
REMARK 924 INTRA-LIGAND FREE ENERGY PREDICTED BY IDOCK:   -1.81 KCAL/MOL
REMARK 927      BINDING AFFINITY PREDICTED BY RF-SCORE:    0.00 PKD
ROOT
HETATM    1  C   UNL     1     -11.604  15.848  64.290  1.00  0.00    -0.178 C  
HETATM    2  O   UNL     1     -10.560  16.326  65.140  1.00  0.00    -0.576 OA 
ENDROOT
BRANCH   2   3
HETATM    3  C   UNL     1     -10.784  16.116  66.475  1.00  0.00    -0.220 A  
HETATM    4  C   UNL     1     -10.393  17.136  67.342  1.00  0.00    -0.333 A  
HETATM    5  O   UNL     1      -9.817  18.276  66.853  1.00  0.00    -0.301 OA 
HETATM    6  C   UNL     1     -10.543  17.014  68.721  1.00  0.00    -0.346 A  
HETATM    7  C   UNL     1     -11.091  15.841  69.243  1.00  0.00    -0.297 A  
HETATM    8  H   UNL     1      -9.551  18.971  67.443  1.00  0.00     0.000 HD 
HETATM    9  C   UNL     1     -11.511  14.811  68.393  1.00  0.00    -0.336 A  
HETATM   10  C   UNL     1     -11.375  14.968  67.003  1.00  0.00    -0.319 A  
BRANCH   9  11
HETATM   11  C   UNL     1     -12.026  13.504  68.934  1.00  0.00    -0.341 C  
BRANCH  11  12
HETATM   12  N   UNL     1     -11.817  12.424  68.015  1.00  0.00    -0.352 N  
HETATM   13  C   UNL     1     -11.012  11.355  68.328  1.00  0.00    -0.216 C  
HETATM   14  H   UNL     1     -12.278  12.450  67.105  1.00  0.00     0.000 HD 
HETATM   15  O   UNL     1     -10.430  11.222  69.389  1.00  0.00    -0.168 OA 
BRANCH  13  16
HETATM   16  C   UNL     1     -10.857  10.402  67.173  1.00  0.00    -0.301 C  
BRANCH  16  17
HETATM   17  C   UNL     1     -10.641  11.101  65.838  1.00  0.00    -0.294 C  
BRANCH  17  18
HETATM   18  C   UNL     1      -9.278  10.791  65.201  1.00  0.00    -0.239 C  
BRANCH  18  19
HETATM   19  C   UNL     1      -8.279  10.039  66.090  1.00  0.00    -0.121 C  
BRANCH  19  20
HETATM   20  C   UNL     1      -6.904  10.650  66.141  1.00  0.00    -0.135 C  
HETATM   21  C   UNL     1      -6.520  11.679  66.917  1.00  0.00    -0.134 C  
HETATM   22  C   UNL     1      -7.338  12.334  68.002  1.00  0.00    -0.105 C  
HETATM   23  C   UNL     1      -8.118  13.537  67.474  1.00  0.00    -0.190 C  
HETATM   24  C   UNL     1      -6.433  12.745  69.161  1.00  0.00    -0.109 C  
ENDBRANCH  19  20
ENDBRANCH  18  19
ENDBRANCH  17  18
ENDBRANCH  16  17
ENDBRANCH  13  16
ENDBRANCH  11  12
ENDBRANCH   9  11
ENDBRANCH   2   3
TORSDOF 8
ENDMDL
MODEL      207
REMARK 921   NORMALIZED FREE ENERGY PREDICTED BY IDOCK:   -4.23 KCAL/MOL
REMARK 922        TOTAL FREE ENERGY PREDICTED BY IDOCK:   -7.42 KCAL/MOL
REMARK 923 INTER-LIGAND FREE ENERGY PREDICTED BY IDOCK:   -6.40 KCAL/MOL
REMARK 924 INTRA-LIGAND FREE ENERGY PREDICTED BY IDOCK:   -1.02 KCAL/MOL
REMARK 927      BINDING AFFINITY PREDICTED BY RF-SCORE:    0.00 PKD
ROOT
HETATM    1  C   UNL     1     -10.052  15.678  65.483  1.00  0.00    -0.362 C  
HETATM    2  O   UNL     1      -9.334  15.695  66.718  1.00  0.00    -0.220 OA 
ENDROOT
BRANCH   2   3
HETATM    3  C   UNL     1     -10.111  15.453  67.821  1.00  0.00    -0.227 A  
HETATM    4  C   UNL     1     -10.298  16.520  68.700  1.00  0.00    -0.287 A  
HETATM    5  O   UNL     1      -9.719  17.733  68.447  1.00  0.00    -0.300 OA 
HETATM    6  C   UNL     1     -11.041  16.375  69.869  1.00  0.00    -0.313 A  
HETATM    7  C   UNL     1     -11.605  15.134  70.166  1.00  0.00    -0.326 A  
HETATM    8  H   UNL     1      -9.847  18.459  69.046  1.00  0.00     0.000 HD 
HETATM    9  C   UNL     1     -11.451  14.053  69.289  1.00  0.00    -0.344 A  
HETATM   10  C   UNL     1     -10.720  14.230  68.102  1.00  0.00    -0.249 A  
BRANCH   9  11
HETATM   11  C   UNL     1     -11.977  12.683  69.627  1.00  0.00    -0.286 C  
BRANCH  11  12
HETATM   12  N   UNL     1     -11.776  11.753  68.555  1.00  0.00    -0.317 N  
HETATM   13  C   UNL     1     -10.717  10.876  68.548  1.00  0.00    -0.204 C  
HETATM   14  H   UNL     1     -12.435  11.741  67.777  1.00  0.00     0.000 HD 
HETATM   15  O   UNL     1      -9.884  10.800  69.434  1.00  0.00    -0.186 OA 
BRANCH  13  16
HETATM   16  C   UNL     1     -10.650  10.075  67.277  1.00  0.00    -0.319 C  
BRANCH  16  17
HETATM   17  C   UNL     1      -9.296   9.419  67.045  1.00  0.00    -0.185 C  
BRANCH  17  18
HETATM   18  C   UNL     1      -9.372   7.891  66.910  1.00  0.00    -0.209 C  
BRANCH  18  19
HETATM   19  C   UNL     1     -10.779   7.282  66.982  1.00  0.00    -0.406 C  
BRANCH  19  20
HETATM   20  C   UNL     1     -10.875   6.025  67.804  1.00  0.00    -0.380 C  
HETATM   21  C   UNL     1     -10.929   5.955  69.146  1.00  0.00    -0.382 C  
HETATM   22  C   UNL     1     -11.057   7.119  70.097  1.00  0.00    -0.301 C  
HETATM   23  C   UNL     1      -9.693   7.615  70.572  1.00  0.00    -0.182 C  
HETATM   24  C   UNL     1     -11.932   6.726  71.286  1.00  0.00    -0.414 C  
ENDBRANCH  19  20
ENDBRANCH  18  19
ENDBRANCH  17  18
ENDBRANCH  16  17
ENDBRANCH  13  16
ENDBRANCH  11  12
ENDBRANCH   9  11
ENDBRANCH   2   3
TORSDOF 8
ENDMDL
MODEL      208
REMARK 921   NORMALIZED FREE ENERGY PREDICTED BY IDOCK:   -4.22 KCAL/MOL
REMARK 922        TOTAL FREE ENERGY PREDICTED BY IDOCK:   -7.41 KCAL/MOL
REMARK 923 INTER-LIGAND FREE ENERGY PREDICTED BY IDOCK:   -6.52 KCAL/MOL
REMARK 924 INTRA-LIGAND FREE ENERGY PREDICTED BY IDOCK:   -0.89 KCAL/MOL
REMARK 927      BINDING AFFINITY PREDICTED BY RF-SCORE:    0.00 PKD
ROOT
HETATM    1  C   UNL     1      -8.127   6.152  69.081  1.00  0.00    -0.109 C  
HETATM    2  O   UNL     1      -8.875   5.014  69.512  1.00  0.00    -0.093 OA 
ENDROOT
BRANCH   2   3
HETATM    3  C   UNL     1      -9.717   5.263  70.564  1.00  0.00    -0.190 A  
HETATM    4  C   UNL     1      -9.420   4.622  71.767  1.00  0.00    -0.150 A  
HETATM    5  O   UNL     1      -8.338   3.791  71.858  1.00  0.00    -0.082 OA 
HETATM    6  C   UNL     1     -10.229   4.777  72.890  1.00  0.00    -0.221 A  
HETATM    7  C   UNL     1     -11.362   5.587  72.804  1.00  0.00    -0.359 A  
HETATM    8  H   UNL     1      -8.136   3.356  72.677  1.00  0.00     0.000 HD 
HETATM    9  C   UNL     1     -11.670   6.260  71.615  1.00  0.00    -0.342 A  
HETATM   10  C   UNL     1     -10.824   6.110  70.502  1.00  0.00    -0.364 A  
BRANCH   9  11
HETATM   11  C   UNL     1     -12.930   7.071  71.472  1.00  0.00    -0.359 C  
BRANCH  11  12
HETATM   12  N   UNL     1     -12.650   8.455  71.232  1.00  0.00    -0.434 N  
HETATM   13  C   UNL     1     -13.325   9.454  71.895  1.00  0.00    -0.434 C  
HETATM   14  H   UNL     1     -11.933   8.707  70.552  1.00  0.00     0.000 HD 
HETATM   15  O   UNL     1     -14.185   9.259  72.734  1.00  0.00    -0.502 OA 
BRANCH  13  16
HETATM   16  C   UNL     1     -12.940  10.823  71.404  1.00  0.00    -0.535 C  
BRANCH  16  17
HETATM   17  C   UNL     1     -11.759  10.811  70.443  1.00  0.00    -0.445 C  
BRANCH  17  18
HETATM   18  C   UNL     1     -12.138  11.196  69.005  1.00  0.00    -0.315 C  
BRANCH  18  19
HETATM   19  C   UNL     1     -11.166  12.142  68.287  1.00  0.00    -0.319 C  
BRANCH  19  20
HETATM   20  C   UNL     1     -11.083  11.941  66.797  1.00  0.00    -0.359 C  
HETATM   21  C   UNL     1     -10.294  11.060  66.156  1.00  0.00    -0.306 C  
HETATM   22  C   UNL     1      -9.446   9.989  66.797  1.00  0.00    -0.209 C  
HETATM   23  C   UNL     1      -8.021  10.476  67.056  1.00  0.00    -0.118 C  
HETATM   24  C   UNL     1      -9.438   8.738  65.923  1.00  0.00    -0.278 C  
ENDBRANCH  19  20
ENDBRANCH  18  19
ENDBRANCH  17  18
ENDBRANCH  16  17
ENDBRANCH  13  16
ENDBRANCH  11  12
ENDBRANCH   9  11
ENDBRANCH   2   3
TORSDOF 8
ENDMDL
MODEL      209
REMARK 921   NORMALIZED FREE ENERGY PREDICTED BY IDOCK:   -4.21 KCAL/MOL
REMARK 922        TOTAL FREE ENERGY PREDICTED BY IDOCK:   -7.40 KCAL/MOL
REMARK 923 INTER-LIGAND FREE ENERGY PREDICTED BY IDOCK:   -6.21 KCAL/MOL
REMARK 924 INTRA-LIGAND FREE ENERGY PREDICTED BY IDOCK:   -1.18 KCAL/MOL
REMARK 927      BINDING AFFINITY PREDICTED BY RF-SCORE:    0.00 PKD
ROOT
HETATM    1  C   UNL     1      -5.914  10.018  68.372  1.00  0.00    -0.042 C  
HETATM    2  O   UNL     1      -6.892  10.652  67.546  1.00  0.00    -0.076 OA 
ENDROOT
BRANCH   2   3
HETATM    3  C   UNL     1      -8.089   9.987  67.485  1.00  0.00    -0.110 A  
HETATM    4  C   UNL     1      -8.927  10.305  66.416  1.00  0.00    -0.148 A  
HETATM    5  O   UNL     1      -8.545  11.240  65.493  1.00  0.00    -0.351 OA 
HETATM    6  C   UNL     1     -10.180   9.714  66.276  1.00  0.00    -0.286 A  
HETATM    7  C   UNL     1     -10.605   8.789  67.230  1.00  0.00    -0.303 A  
HETATM    8  H   UNL     1      -9.115  11.456  64.765  1.00  0.00     0.000 HD 
HETATM    9  C   UNL     1      -9.774   8.436  68.300  1.00  0.00    -0.170 A  
HETATM   10  C   UNL     1      -8.502   9.025  68.406  1.00  0.00    -0.129 A  
BRANCH   9  11
HETATM   11  C   UNL     1     -10.242   7.505  69.387  1.00  0.00    -0.204 C  
BRANCH  11  12
HETATM   12  N   UNL     1     -11.385   8.023  70.079  1.00  0.00    -0.453 N  
HETATM   13  C   UNL     1     -11.301   8.476  71.375  1.00  0.00    -0.271 C  
HETATM   14  H   UNL     1     -12.284   8.056  69.599  1.00  0.00     0.000 HD 
HETATM   15  O   UNL     1     -10.275   8.494  72.030  1.00  0.00    -0.264 OA 
BRANCH  13  16
HETATM   16  C   UNL     1     -12.644   8.870  71.927  1.00  0.00    -0.439 C  
BRANCH  16  17
HETATM   17  C   UNL     1     -13.260  10.070  71.221  1.00  0.00    -0.469 C  
BRANCH  17  18
HETATM   18  C   UNL     1     -12.445  11.362  71.387  1.00  0.00    -0.370 C  
BRANCH  18  19
HETATM   19  C   UNL     1     -13.257  12.661  71.461  1.00  0.00    -0.313 C  
BRANCH  19  20
HETATM   20  C   UNL     1     -12.445  13.917  71.292  1.00  0.00    -0.440 C  
HETATM   21  C   UNL     1     -11.812  14.310  70.172  1.00  0.00    -0.379 C  
HETATM   22  C   UNL     1     -11.910  13.657  68.815  1.00  0.00    -0.395 C  
HETATM   23  C   UNL     1     -10.805  12.623  68.604  1.00  0.00    -0.281 C  
HETATM   24  C   UNL     1     -11.869  14.721  67.720  1.00  0.00    -0.322 C  
ENDBRANCH  19  20
ENDBRANCH  18  19
ENDBRANCH  17  18
ENDBRANCH  16  17
ENDBRANCH  13  16
ENDBRANCH  11  12
ENDBRANCH   9  11
ENDBRANCH   2   3
TORSDOF 8
ENDMDL
MODEL      210
REMARK 921   NORMALIZED FREE ENERGY PREDICTED BY IDOCK:   -4.19 KCAL/MOL
REMARK 922        TOTAL FREE ENERGY PREDICTED BY IDOCK:   -7.37 KCAL/MOL
REMARK 923 INTER-LIGAND FREE ENERGY PREDICTED BY IDOCK:   -6.06 KCAL/MOL
REMARK 924 INTRA-LIGAND FREE ENERGY PREDICTED BY IDOCK:   -1.31 KCAL/MOL
REMARK 927      BINDING AFFINITY PREDICTED BY RF-SCORE:    0.00 PKD
ROOT
HETATM    1  C   UNL     1     -10.839   5.219  73.017  1.00  0.00    -0.280 C  
HETATM    2  O   UNL     1     -11.002   6.545  73.523  1.00  0.00    -0.229 OA 
ENDROOT
BRANCH   2   3
HETATM    3  C   UNL     1     -10.664   7.529  72.632  1.00  0.00    -0.303 A  
HETATM    4  C   UNL     1     -11.650   8.471  72.338  1.00  0.00    -0.354 A  
HETATM    5  O   UNL     1     -12.883   8.386  72.924  1.00  0.00    -0.659 OA 
HETATM    6  C   UNL     1     -11.426   9.495  71.421  1.00  0.00    -0.462 A  
HETATM    7  C   UNL     1     -10.189   9.573  70.780  1.00  0.00    -0.363 A  
HETATM    8  H   UNL     1     -13.554   9.028  72.724  1.00  0.00     0.000 HD 
HETATM    9  C   UNL     1      -9.174   8.654  71.074  1.00  0.00    -0.253 A  
HETATM   10  C   UNL     1      -9.414   7.646  72.024  1.00  0.00    -0.194 A  
BRANCH   9  11
HETATM   11  C   UNL     1      -7.862   8.666  70.336  1.00  0.00    -0.091 C  
BRANCH  11  12
HETATM   12  N   UNL     1      -8.046   8.735  68.917  1.00  0.00    -0.112 N  
HETATM   13  C   UNL     1      -8.307   7.613  68.167  1.00  0.00    -0.124 C  
HETATM   14  H   UNL     1      -7.983   9.641  68.452  1.00  0.00     0.000 HD 
HETATM   15  O   UNL     1      -8.417   6.491  68.627  1.00  0.00    -0.120 OA 
BRANCH  13  16
HETATM   16  C   UNL     1      -8.356   7.913  66.693  1.00  0.00    -0.125 C  
BRANCH  16  17
HETATM   17  C   UNL     1      -9.064   9.221  66.366  1.00  0.00    -0.200 C  
BRANCH  17  18
HETATM   18  C   UNL     1     -10.536   9.245  66.804  1.00  0.00    -0.263 C  
BRANCH  18  19
HETATM   19  C   UNL     1     -11.087  10.615  67.221  1.00  0.00    -0.313 C  
BRANCH  19  20
HETATM   20  C   UNL     1     -10.054  11.566  67.765  1.00  0.00    -0.198 C  
HETATM   21  C   UNL     1     -10.260  12.847  68.117  1.00  0.00    -0.239 C  
HETATM   22  C   UNL     1     -11.592  13.551  68.187  1.00  0.00    -0.368 C  
HETATM   23  C   UNL     1     -11.921  14.271  66.880  1.00  0.00    -0.467 C  
HETATM   24  C   UNL     1     -11.604  14.530  69.359  1.00  0.00    -0.343 C  
ENDBRANCH  19  20
ENDBRANCH  18  19
ENDBRANCH  17  18
ENDBRANCH  16  17
ENDBRANCH  13  16
ENDBRANCH  11  12
ENDBRANCH   9  11
ENDBRANCH   2   3
TORSDOF 8
ENDMDL
MODEL      211
REMARK 921   NORMALIZED FREE ENERGY PREDICTED BY IDOCK:   -4.19 KCAL/MOL
REMARK 922        TOTAL FREE ENERGY PREDICTED BY IDOCK:   -7.37 KCAL/MOL
REMARK 923 INTER-LIGAND FREE ENERGY PREDICTED BY IDOCK:   -6.50 KCAL/MOL
REMARK 924 INTRA-LIGAND FREE ENERGY PREDICTED BY IDOCK:   -0.86 KCAL/MOL
REMARK 927      BINDING AFFINITY PREDICTED BY RF-SCORE:    0.00 PKD
ROOT
HETATM    1  C   UNL     1     -11.815  13.825  69.789  1.00  0.00    -0.331 C  
HETATM    2  O   UNL     1     -12.113  12.528  70.307  1.00  0.00    -0.349 OA 
ENDROOT
BRANCH   2   3
HETATM    3  C   UNL     1     -11.654  11.496  69.532  1.00  0.00    -0.333 A  
HETATM    4  C   UNL     1     -11.494  10.262  70.164  1.00  0.00    -0.309 A  
HETATM    5  O   UNL     1     -11.787  10.124  71.492  1.00  0.00    -0.362 OA 
HETATM    6  C   UNL     1     -11.001   9.155  69.478  1.00  0.00    -0.138 A  
HETATM    7  C   UNL     1     -10.656   9.287  68.133  1.00  0.00    -0.248 A  
HETATM    8  H   UNL     1     -11.678   9.284  71.922  1.00  0.00     0.000 HD 
HETATM    9  C   UNL     1     -10.828  10.508  67.469  1.00  0.00    -0.357 A  
HETATM   10  C   UNL     1     -11.353  11.605  68.174  1.00  0.00    -0.358 A  
BRANCH   9  11
HETATM   11  C   UNL     1     -10.386  10.699  66.043  1.00  0.00    -0.225 C  
BRANCH  11  12
HETATM   12  N   UNL     1     -10.101  12.073  65.750  1.00  0.00    -0.233 N  
HETATM   13  C   UNL     1     -11.000  12.870  65.081  1.00  0.00    -0.289 C  
HETATM   14  H   UNL     1      -9.209  12.469  66.046  1.00  0.00     0.000 HD 
HETATM   15  O   UNL     1     -12.095  12.498  64.700  1.00  0.00    -0.387 OA 
BRANCH  13  16
HETATM   16  C   UNL     1     -10.443  14.238  64.794  1.00  0.00    -0.421 C  
BRANCH  16  17
HETATM   17  C   UNL     1     -10.000  14.985  66.044  1.00  0.00    -0.334 C  
BRANCH  17  18
HETATM   18  C   UNL     1     -10.053  16.513  65.893  1.00  0.00    -0.359 C  
BRANCH  18  19
HETATM   19  C   UNL     1     -10.196  17.310  67.197  1.00  0.00    -0.319 C  
BRANCH  19  20
HETATM   20  C   UNL     1      -9.855  16.536  68.443  1.00  0.00    -0.237 C  
HETATM   21  C   UNL     1      -8.618  16.262  68.895  1.00  0.00    -0.260 C  
HETATM   22  C   UNL     1      -7.323  16.800  68.337  1.00  0.00    -0.198 C  
HETATM   23  C   UNL     1      -6.723  15.858  67.295  1.00  0.00    -0.221 C  
HETATM   24  C   UNL     1      -6.332  17.052  69.470  1.00  0.00    -0.235 C  
ENDBRANCH  19  20
ENDBRANCH  18  19
ENDBRANCH  17  18
ENDBRANCH  16  17
ENDBRANCH  13  16
ENDBRANCH  11  12
ENDBRANCH   9  11
ENDBRANCH   2   3
TORSDOF 8
ENDMDL
MODEL      212
REMARK 921   NORMALIZED FREE ENERGY PREDICTED BY IDOCK:   -4.19 KCAL/MOL
REMARK 922        TOTAL FREE ENERGY PREDICTED BY IDOCK:   -7.37 KCAL/MOL
REMARK 923 INTER-LIGAND FREE ENERGY PREDICTED BY IDOCK:   -6.14 KCAL/MOL
REMARK 924 INTRA-LIGAND FREE ENERGY PREDICTED BY IDOCK:   -1.23 KCAL/MOL
REMARK 927      BINDING AFFINITY PREDICTED BY RF-SCORE:    0.00 PKD
ROOT
HETATM    1  C   UNL     1     -12.940   9.881  72.083  1.00  0.00    -0.379 C  
HETATM    2  O   UNL     1     -11.937   9.262  71.276  1.00  0.00    -0.300 OA 
ENDROOT
BRANCH   2   3
HETATM    3  C   UNL     1     -11.659   9.934  70.115  1.00  0.00    -0.218 A  
HETATM    4  C   UNL     1     -10.985   9.218  69.125  1.00  0.00    -0.060 A  
HETATM    5  O   UNL     1     -10.631   7.914  69.335  1.00  0.00    -0.225 OA 
HETATM    6  C   UNL     1     -10.623   9.813  67.919  1.00  0.00    -0.310 A  
HETATM    7  C   UNL     1     -10.937  11.155  67.702  1.00  0.00    -0.323 A  
HETATM    8  H   UNL     1     -10.173   7.427  68.661  1.00  0.00     0.000 HD 
HETATM    9  C   UNL     1     -11.633  11.890  68.671  1.00  0.00    -0.366 A  
HETATM   10  C   UNL     1     -12.013  11.260  69.869  1.00  0.00    -0.440 A  
BRANCH   9  11
HETATM   11  C   UNL     1     -11.910  13.359  68.497  1.00  0.00    -0.366 C  
BRANCH  11  12
HETATM   12  N   UNL     1     -11.194  13.911  67.385  1.00  0.00    -0.301 N  
HETATM   13  C   UNL     1     -11.833  14.272  66.222  1.00  0.00    -0.406 C  
HETATM   14  H   UNL     1     -10.185  14.039  67.458  1.00  0.00     0.000 HD 
HETATM   15  O   UNL     1     -13.032  14.175  66.040  1.00  0.00    -0.357 OA 
BRANCH  13  16
HETATM   16  C   UNL     1     -10.867  14.725  65.160  1.00  0.00    -0.417 C  
BRANCH  16  17
HETATM   17  C   UNL     1     -10.938  16.219  64.876  1.00  0.00    -0.321 C  
BRANCH  17  18
HETATM   18  C   UNL     1     -10.077  17.064  65.828  1.00  0.00    -0.219 C  
BRANCH  18  19
HETATM   19  C   UNL     1      -8.752  16.430  66.271  1.00  0.00    -0.369 C  
BRANCH  19  20
HETATM   20  C   UNL     1      -8.588  16.302  67.762  1.00  0.00    -0.175 C  
HETATM   21  C   UNL     1      -7.901  15.342  68.407  1.00  0.00    -0.129 C  
HETATM   22  C   UNL     1      -7.027  14.289  67.771  1.00  0.00    -0.191 C  
HETATM   23  C   UNL     1      -7.801  13.000  67.501  1.00  0.00    -0.178 C  
HETATM   24  C   UNL     1      -5.815  14.013  68.658  1.00  0.00    -0.085 C  
ENDBRANCH  19  20
ENDBRANCH  18  19
ENDBRANCH  17  18
ENDBRANCH  16  17
ENDBRANCH  13  16
ENDBRANCH  11  12
ENDBRANCH   9  11
ENDBRANCH   2   3
TORSDOF 8
ENDMDL
MODEL      213
REMARK 921   NORMALIZED FREE ENERGY PREDICTED BY IDOCK:   -4.19 KCAL/MOL
REMARK 922        TOTAL FREE ENERGY PREDICTED BY IDOCK:   -7.37 KCAL/MOL
REMARK 923 INTER-LIGAND FREE ENERGY PREDICTED BY IDOCK:   -6.66 KCAL/MOL
REMARK 924 INTRA-LIGAND FREE ENERGY PREDICTED BY IDOCK:   -0.70 KCAL/MOL
REMARK 927      BINDING AFFINITY PREDICTED BY RF-SCORE:    0.00 PKD
ROOT
HETATM    1  C   UNL     1      -8.546  12.448  68.187  1.00  0.00    -0.185 C  
HETATM    2  O   UNL     1      -9.761  12.958  68.739  1.00  0.00    -0.088 OA 
ENDROOT
BRANCH   2   3
HETATM    3  C   UNL     1     -10.122  14.189  68.257  1.00  0.00    -0.241 A  
HETATM    4  C   UNL     1     -10.369  15.183  69.204  1.00  0.00    -0.249 A  
HETATM    5  O   UNL     1     -10.250  14.910  70.539  1.00  0.00    -0.476 OA 
HETATM    6  C   UNL     1     -10.774  16.460  68.825  1.00  0.00    -0.321 A  
HETATM    7  C   UNL     1     -10.942  16.746  67.470  1.00  0.00    -0.134 A  
HETATM    8  H   UNL     1     -10.417  15.587  71.183  1.00  0.00     0.000 HD 
HETATM    9  C   UNL     1     -10.679  15.772  66.498  1.00  0.00    -0.283 A  
HETATM   10  C   UNL     1     -10.244  14.498  66.902  1.00  0.00    -0.264 A  
BRANCH   9  11
HETATM   11  C   UNL     1     -10.933  16.029  65.037  1.00  0.00    -0.380 C  
BRANCH  11  12
HETATM   12  N   UNL     1     -10.925  14.818  64.271  1.00  0.00    -0.566 N  
HETATM   13  C   UNL     1     -12.027  13.997  64.206  1.00  0.00    -0.435 C  
HETATM   14  H   UNL     1     -10.081  14.557  63.762  1.00  0.00     0.000 HD 
HETATM   15  O   UNL     1     -13.085  14.225  64.763  1.00  0.00    -0.599 OA 
BRANCH  13  16
HETATM   16  C   UNL     1     -11.751  12.735  63.434  1.00  0.00    -0.556 C  
BRANCH  16  17
HETATM   17  C   UNL     1     -11.641  11.499  64.316  1.00  0.00    -0.219 C  
BRANCH  17  18
HETATM   18  C   UNL     1     -10.329  11.432  65.113  1.00  0.00    -0.344 C  
BRANCH  18  19
HETATM   19  C   UNL     1      -9.713  10.036  65.272  1.00  0.00    -0.373 C  
BRANCH  19  20
HETATM   20  C   UNL     1     -10.239   9.250  66.443  1.00  0.00    -0.298 C  
HETATM   21  C   UNL     1      -9.685   8.145  66.973  1.00  0.00    -0.275 C  
HETATM   22  C   UNL     1      -8.346   7.553  66.605  1.00  0.00    -0.127 C  
HETATM   23  C   UNL     1      -8.479   6.487  65.519  1.00  0.00    -0.139 C  
HETATM   24  C   UNL     1      -7.673   6.976  67.848  1.00  0.00    -0.113 C  
ENDBRANCH  19  20
ENDBRANCH  18  19
ENDBRANCH  17  18
ENDBRANCH  16  17
ENDBRANCH  13  16
ENDBRANCH  11  12
ENDBRANCH   9  11
ENDBRANCH   2   3
TORSDOF 8
ENDMDL
MODEL      214
REMARK 921   NORMALIZED FREE ENERGY PREDICTED BY IDOCK:   -4.18 KCAL/MOL
REMARK 922        TOTAL FREE ENERGY PREDICTED BY IDOCK:   -7.35 KCAL/MOL
REMARK 923 INTER-LIGAND FREE ENERGY PREDICTED BY IDOCK:   -6.44 KCAL/MOL
REMARK 924 INTRA-LIGAND FREE ENERGY PREDICTED BY IDOCK:   -0.91 KCAL/MOL
REMARK 927      BINDING AFFINITY PREDICTED BY RF-SCORE:    0.00 PKD
ROOT
HETATM    1  C   UNL     1     -11.797   7.663  72.387  1.00  0.00    -0.289 C  
HETATM    2  O   UNL     1     -10.642   8.407  71.997  1.00  0.00    -0.265 OA 
ENDROOT
BRANCH   2   3
HETATM    3  C   UNL     1     -10.834   9.204  70.899  1.00  0.00    -0.278 A  
HETATM    4  C   UNL     1     -10.362   8.714  69.681  1.00  0.00    -0.213 A  
HETATM    5  O   UNL     1      -9.740   7.498  69.620  1.00  0.00    -0.166 OA 
HETATM    6  C   UNL     1     -10.474   9.456  68.508  1.00  0.00    -0.239 A  
HETATM    7  C   UNL     1     -11.068  10.718  68.557  1.00  0.00    -0.317 A  
HETATM    8  H   UNL     1      -9.418   7.164  68.791  1.00  0.00     0.000 HD 
HETATM    9  C   UNL     1     -11.571  11.223  69.762  1.00  0.00    -0.408 A  
HETATM   10  C   UNL     1     -11.471  10.445  70.929  1.00  0.00    -0.385 A  
BRANCH   9  11
HETATM   11  C   UNL     1     -12.139  12.614  69.858  1.00  0.00    -0.252 C  
BRANCH  11  12
HETATM   12  N   UNL     1     -11.196  13.607  69.436  1.00  0.00    -0.387 N  
HETATM   13  C   UNL     1     -11.342  14.281  68.246  1.00  0.00    -0.289 C  
HETATM   14  H   UNL     1     -10.397  13.820  70.033  1.00  0.00     0.000 HD 
HETATM   15  O   UNL     1     -12.266  14.113  67.472  1.00  0.00    -0.370 OA 
BRANCH  13  16
HETATM   16  C   UNL     1     -10.180  15.195  67.965  1.00  0.00    -0.230 C  
BRANCH  16  17
HETATM   17  C   UNL     1      -8.893  14.766  68.655  1.00  0.00    -0.180 C  
BRANCH  17  18
HETATM   18  C   UNL     1      -7.650  14.890  67.761  1.00  0.00    -0.171 C  
BRANCH  18  19
HETATM   19  C   UNL     1      -7.303  16.308  67.290  1.00  0.00    -0.216 C  
BRANCH  19  20
HETATM   20  C   UNL     1      -7.298  17.346  68.380  1.00  0.00    -0.227 C  
HETATM   21  C   UNL     1      -7.926  18.535  68.350  1.00  0.00    -0.337 C  
HETATM   22  C   UNL     1      -8.886  19.011  67.287  1.00  0.00    -0.302 C  
HETATM   23  C   UNL     1      -8.173  19.804  66.195  1.00  0.00    -0.363 C  
HETATM   24  C   UNL     1      -9.995  19.846  67.924  1.00  0.00    -0.552 C  
ENDBRANCH  19  20
ENDBRANCH  18  19
ENDBRANCH  17  18
ENDBRANCH  16  17
ENDBRANCH  13  16
ENDBRANCH  11  12
ENDBRANCH   9  11
ENDBRANCH   2   3
TORSDOF 8
ENDMDL
MODEL      215
REMARK 921   NORMALIZED FREE ENERGY PREDICTED BY IDOCK:   -4.17 KCAL/MOL
REMARK 922        TOTAL FREE ENERGY PREDICTED BY IDOCK:   -7.33 KCAL/MOL
REMARK 923 INTER-LIGAND FREE ENERGY PREDICTED BY IDOCK:   -6.41 KCAL/MOL
REMARK 924 INTRA-LIGAND FREE ENERGY PREDICTED BY IDOCK:   -0.92 KCAL/MOL
REMARK 927      BINDING AFFINITY PREDICTED BY RF-SCORE:    0.00 PKD
ROOT
HETATM    1  C   UNL     1     -14.037   8.500  71.922  1.00  0.00    -0.447 C  
HETATM    2  O   UNL     1     -13.484   9.702  72.461  1.00  0.00    -0.394 OA 
ENDROOT
BRANCH   2   3
HETATM    3  C   UNL     1     -12.912  10.524  71.526  1.00  0.00    -0.460 A  
HETATM    4  C   UNL     1     -13.136  11.892  71.675  1.00  0.00    -0.328 A  
HETATM    5  O   UNL     1     -13.896  12.358  72.712  1.00  0.00    -0.566 OA 
HETATM    6  C   UNL     1     -12.630  12.815  70.762  1.00  0.00    -0.308 A  
HETATM    7  C   UNL     1     -11.888  12.355  69.674  1.00  0.00    -0.380 A  
HETATM    8  H   UNL     1     -14.049  13.290  72.814  1.00  0.00     0.000 HD 
HETATM    9  C   UNL     1     -11.629  10.989  69.513  1.00  0.00    -0.384 A  
HETATM   10  C   UNL     1     -12.127  10.079  70.462  1.00  0.00    -0.338 A  
BRANCH   9  11
HETATM   11  C   UNL     1     -10.904  10.461  68.304  1.00  0.00    -0.254 C  
BRANCH  11  12
HETATM   12  N   UNL     1     -11.037   9.040  68.178  1.00  0.00    -0.470 N  
HETATM   13  C   UNL     1     -10.593   8.369  67.062  1.00  0.00    -0.246 C  
HETATM   14  H   UNL     1     -11.472   8.512  68.934  1.00  0.00     0.000 HD 
HETATM   15  O   UNL     1     -10.048   8.902  66.114  1.00  0.00    -0.291 OA 
BRANCH  13  16
HETATM   16  C   UNL     1     -10.935   6.904  67.106  1.00  0.00    -0.427 C  
BRANCH  16  17
HETATM   17  C   UNL     1     -11.156   6.377  68.517  1.00  0.00    -0.385 C  
BRANCH  17  18
HETATM   18  C   UNL     1     -10.129   5.316  68.940  1.00  0.00    -0.254 C  
BRANCH  18  19
HETATM   19  C   UNL     1      -8.663   5.637  68.619  1.00  0.00    -0.106 C  
BRANCH  19  20
HETATM   20  C   UNL     1      -7.972   4.611  67.762  1.00  0.00    -0.092 C  
HETATM   21  C   UNL     1      -7.263   4.855  66.645  1.00  0.00    -0.080 C  
HETATM   22  C   UNL     1      -6.885   6.212  66.106  1.00  0.00    -0.061 C  
HETATM   23  C   UNL     1      -7.908   6.724  65.094  1.00  0.00    -0.119 C  
HETATM   24  C   UNL     1      -5.492   6.156  65.483  1.00  0.00    -0.017 C  
ENDBRANCH  19  20
ENDBRANCH  18  19
ENDBRANCH  17  18
ENDBRANCH  16  17
ENDBRANCH  13  16
ENDBRANCH  11  12
ENDBRANCH   9  11
ENDBRANCH   2   3
TORSDOF 8
ENDMDL
MODEL      216
REMARK 921   NORMALIZED FREE ENERGY PREDICTED BY IDOCK:   -4.16 KCAL/MOL
REMARK 922        TOTAL FREE ENERGY PREDICTED BY IDOCK:   -7.32 KCAL/MOL
REMARK 923 INTER-LIGAND FREE ENERGY PREDICTED BY IDOCK:   -5.98 KCAL/MOL
REMARK 924 INTRA-LIGAND FREE ENERGY PREDICTED BY IDOCK:   -1.35 KCAL/MOL
REMARK 927      BINDING AFFINITY PREDICTED BY RF-SCORE:    0.00 PKD
ROOT
HETATM    1  C   UNL     1      -9.483  17.313  67.686  1.00  0.00    -0.246 C  
HETATM    2  O   UNL     1      -8.586  16.604  66.830  1.00  0.00    -0.197 OA 
ENDROOT
BRANCH   2   3
HETATM    3  C   UNL     1      -8.206  15.378  67.309  1.00  0.00    -0.196 A  
HETATM    4  C   UNL     1      -6.837  15.166  67.469  1.00  0.00    -0.174 A  
HETATM    5  O   UNL     1      -5.944  16.152  67.153  1.00  0.00    -0.273 OA 
HETATM    6  C   UNL     1      -6.339  13.945  67.917  1.00  0.00    -0.167 A  
HETATM    7  C   UNL     1      -7.232  12.912  68.205  1.00  0.00    -0.114 A  
HETATM    8  H   UNL     1      -5.011  16.008  67.262  1.00  0.00     0.000 HD 
HETATM    9  C   UNL     1      -8.613  13.106  68.074  1.00  0.00    -0.182 A  
HETATM   10  C   UNL     1      -9.094  14.356  67.646  1.00  0.00    -0.194 A  
BRANCH   9  11
HETATM   11  C   UNL     1      -9.591  11.983  68.297  1.00  0.00    -0.204 C  
BRANCH  11  12
HETATM   12  N   UNL     1      -9.912  11.303  67.077  1.00  0.00    -0.195 N  
HETATM   13  C   UNL     1      -9.383  10.069  66.778  1.00  0.00    -0.160 C  
HETATM   14  H   UNL     1     -10.549  11.744  66.414  1.00  0.00     0.000 HD 
HETATM   15  O   UNL     1      -8.627   9.452  67.507  1.00  0.00    -0.122 OA 
BRANCH  13  16
HETATM   16  C   UNL     1      -9.775   9.601  65.403  1.00  0.00    -0.365 C  
BRANCH  16  17
HETATM   17  C   UNL     1      -9.041  10.327  64.284  1.00  0.00    -0.278 C  
BRANCH  17  18
HETATM   18  C   UNL     1      -9.921  11.335  63.530  1.00  0.00    -0.417 C  
BRANCH  18  19
HETATM   19  C   UNL     1     -11.398  11.373  63.942  1.00  0.00    -0.302 C  
BRANCH  19  20
HETATM   20  C   UNL     1     -12.187  12.504  63.338  1.00  0.00    -0.613 C  
HETATM   21  C   UNL     1     -12.281  13.755  63.823  1.00  0.00    -0.364 C  
HETATM   22  C   UNL     1     -11.499  14.326  64.980  1.00  0.00    -0.364 C  
HETATM   23  C   UNL     1     -12.255  14.181  66.300  1.00  0.00    -0.474 C  
HETATM   24  C   UNL     1     -11.163  15.791  64.710  1.00  0.00    -0.375 C  
ENDBRANCH  19  20
ENDBRANCH  18  19
ENDBRANCH  17  18
ENDBRANCH  16  17
ENDBRANCH  13  16
ENDBRANCH  11  12
ENDBRANCH   9  11
ENDBRANCH   2   3
TORSDOF 8
ENDMDL
MODEL      217
REMARK 921   NORMALIZED FREE ENERGY PREDICTED BY IDOCK:   -4.15 KCAL/MOL
REMARK 922        TOTAL FREE ENERGY PREDICTED BY IDOCK:   -7.30 KCAL/MOL
REMARK 923 INTER-LIGAND FREE ENERGY PREDICTED BY IDOCK:   -5.78 KCAL/MOL
REMARK 924 INTRA-LIGAND FREE ENERGY PREDICTED BY IDOCK:   -1.52 KCAL/MOL
REMARK 927      BINDING AFFINITY PREDICTED BY RF-SCORE:    0.00 PKD
ROOT
HETATM    1  C   UNL     1      -9.723  11.329  63.184  1.00  0.00    -0.386 C  
HETATM    2  O   UNL     1     -10.653  11.350  64.267  1.00  0.00    -0.309 OA 
ENDROOT
BRANCH   2   3
HETATM    3  C   UNL     1     -10.339  10.496  65.292  1.00  0.00    -0.229 A  
HETATM    4  C   UNL     1     -11.035  10.672  66.488  1.00  0.00    -0.028 A  
HETATM    5  O   UNL     1     -11.977  11.658  66.600  1.00  0.00    -0.503 OA 
HETATM    6  C   UNL     1     -10.771   9.882  67.604  1.00  0.00    -0.339 A  
HETATM    7  C   UNL     1      -9.785   8.899  67.522  1.00  0.00    -0.216 A  
HETATM    8  H   UNL     1     -12.451  11.777  67.415  1.00  0.00     0.000 HD 
HETATM    9  C   UNL     1      -9.087   8.687  66.326  1.00  0.00    -0.233 A  
HETATM   10  C   UNL     1      -9.389   9.478  65.204  1.00  0.00    -0.316 A  
BRANCH   9  11
HETATM   11  C   UNL     1      -7.961   7.691  66.237  1.00  0.00    -0.105 C  
BRANCH  11  12
HETATM   12  N   UNL     1      -7.987   6.755  67.321  1.00  0.00    -0.112 N  
HETATM   13  C   UNL     1      -8.458   5.473  67.157  1.00  0.00    -0.110 C  
HETATM   14  H   UNL     1      -7.648   7.047  68.238  1.00  0.00     0.000 HD 
HETATM   15  O   UNL     1      -8.869   5.023  66.104  1.00  0.00    -0.120 OA 
BRANCH  13  16
HETATM   16  C   UNL     1      -8.488   4.709  68.453  1.00  0.00    -0.094 C  
BRANCH  16  17
HETATM   17  C   UNL     1      -8.715   5.594  69.672  1.00  0.00    -0.110 C  
BRANCH  17  18
HETATM   18  C   UNL     1     -10.057   5.335  70.372  1.00  0.00    -0.324 C  
BRANCH  18  19
HETATM   19  C   UNL     1     -11.267   6.088  69.801  1.00  0.00    -0.440 C  
BRANCH  19  20
HETATM   20  C   UNL     1     -12.196   6.658  70.840  1.00  0.00    -0.324 C  
HETATM   21  C   UNL     1     -12.165   7.909  71.333  1.00  0.00    -0.337 C  
HETATM   22  C   UNL     1     -11.299   9.042  70.841  1.00  0.00    -0.351 C  
HETATM   23  C   UNL     1      -9.986   9.129  71.617  1.00  0.00    -0.319 C  
HETATM   24  C   UNL     1     -12.065  10.360  70.929  1.00  0.00    -0.477 C  
ENDBRANCH  19  20
ENDBRANCH  18  19
ENDBRANCH  17  18
ENDBRANCH  16  17
ENDBRANCH  13  16
ENDBRANCH  11  12
ENDBRANCH   9  11
ENDBRANCH   2   3
TORSDOF 8
ENDMDL
MODEL      218
REMARK 921   NORMALIZED FREE ENERGY PREDICTED BY IDOCK:   -4.14 KCAL/MOL
REMARK 922        TOTAL FREE ENERGY PREDICTED BY IDOCK:   -7.29 KCAL/MOL
REMARK 923 INTER-LIGAND FREE ENERGY PREDICTED BY IDOCK:   -6.36 KCAL/MOL
REMARK 924 INTRA-LIGAND FREE ENERGY PREDICTED BY IDOCK:   -0.94 KCAL/MOL
REMARK 927      BINDING AFFINITY PREDICTED BY RF-SCORE:    0.00 PKD
ROOT
HETATM    1  C   UNL     1     -12.260  12.480  63.342  1.00  0.00    -0.517 C  
HETATM    2  O   UNL     1     -12.616  12.039  64.653  1.00  0.00    -0.394 OA 
ENDROOT
BRANCH   2   3
HETATM    3  C   UNL     1     -11.841  12.566  65.651  1.00  0.00    -0.438 A  
HETATM    4  C   UNL     1     -12.277  13.766  66.214  1.00  0.00    -0.447 A  
HETATM    5  O   UNL     1     -13.424  14.361  65.767  1.00  0.00    -0.545 OA 
HETATM    6  C   UNL     1     -11.547  14.407  67.212  1.00  0.00    -0.401 A  
HETATM    7  C   UNL     1     -10.351  13.837  67.651  1.00  0.00    -0.239 A  
HETATM    8  H   UNL     1     -13.721  15.178  66.151  1.00  0.00     0.000 HD 
HETATM    9  C   UNL     1      -9.903  12.622  67.119  1.00  0.00    -0.212 A  
HETATM   10  C   UNL     1     -10.670  11.979  66.132  1.00  0.00    -0.312 A  
BRANCH   9  11
HETATM   11  C   UNL     1      -8.577  12.029  67.515  1.00  0.00    -0.167 C  
BRANCH  11  12
HETATM   12  N   UNL     1      -8.704  10.666  67.936  1.00  0.00    -0.126 N  
HETATM   13  C   UNL     1      -7.639   9.968  68.455  1.00  0.00    -0.083 C  
HETATM   14  H   UNL     1      -9.608  10.201  67.849  1.00  0.00     0.000 HD 
HETATM   15  O   UNL     1      -6.525  10.434  68.614  1.00  0.00    -0.051 OA 
BRANCH  13  16
HETATM   16  C   UNL     1      -7.981   8.528  68.726  1.00  0.00    -0.119 C  
BRANCH  16  17
HETATM   17  C   UNL     1      -7.966   7.657  67.477  1.00  0.00    -0.120 C  
BRANCH  17  18
HETATM   18  C   UNL     1      -9.314   6.981  67.188  1.00  0.00    -0.166 C  
BRANCH  18  19
HETATM   19  C   UNL     1     -10.498   7.459  68.039  1.00  0.00    -0.253 C  
BRANCH  19  20
HETATM   20  C   UNL     1     -11.030   6.432  69.003  1.00  0.00    -0.410 C  
HETATM   21  C   UNL     1     -11.316   6.633  70.302  1.00  0.00    -0.431 C  
HETATM   22  C   UNL     1     -11.309   7.959  71.023  1.00  0.00    -0.292 C  
HETATM   23  C   UNL     1      -9.961   8.236  71.684  1.00  0.00    -0.277 C  
HETATM   24  C   UNL     1     -12.434   7.996  72.055  1.00  0.00    -0.357 C  
ENDBRANCH  19  20
ENDBRANCH  18  19
ENDBRANCH  17  18
ENDBRANCH  16  17
ENDBRANCH  13  16
ENDBRANCH  11  12
ENDBRANCH   9  11
ENDBRANCH   2   3
TORSDOF 8
ENDMDL
MODEL      219
REMARK 921   NORMALIZED FREE ENERGY PREDICTED BY IDOCK:   -4.14 KCAL/MOL
REMARK 922        TOTAL FREE ENERGY PREDICTED BY IDOCK:   -7.29 KCAL/MOL
REMARK 923 INTER-LIGAND FREE ENERGY PREDICTED BY IDOCK:   -6.47 KCAL/MOL
REMARK 924 INTRA-LIGAND FREE ENERGY PREDICTED BY IDOCK:   -0.82 KCAL/MOL
REMARK 927      BINDING AFFINITY PREDICTED BY RF-SCORE:    0.00 PKD
ROOT
HETATM    1  C   UNL     1      -6.631   9.663  65.046  1.00  0.00    -0.091 C  
HETATM    2  O   UNL     1      -7.903   9.067  64.784  1.00  0.00    -0.111 OA 
ENDROOT
BRANCH   2   3
HETATM    3  C   UNL     1      -8.949   9.952  64.796  1.00  0.00    -0.217 A  
HETATM    4  C   UNL     1      -9.506  10.279  63.560  1.00  0.00    -0.298 A  
HETATM    5  O   UNL     1      -9.009   9.729  62.411  1.00  0.00    -0.233 OA 
HETATM    6  C   UNL     1     -10.551  11.194  63.454  1.00  0.00    -0.340 A  
HETATM    7  C   UNL     1     -11.044  11.799  64.611  1.00  0.00    -0.363 A  
HETATM    8  H   UNL     1      -9.389   9.951  61.570  1.00  0.00     0.000 HD 
HETATM    9  C   UNL     1     -10.517  11.471  65.867  1.00  0.00    -0.303 A  
HETATM   10  C   UNL     1      -9.481  10.524  65.952  1.00  0.00    -0.236 A  
BRANCH   9  11
HETATM   11  C   UNL     1     -10.973  12.170  67.119  1.00  0.00    -0.268 C  
BRANCH  11  12
HETATM   12  N   UNL     1     -10.443  13.498  67.215  1.00  0.00    -0.248 N  
HETATM   13  C   UNL     1     -11.200  14.602  66.903  1.00  0.00    -0.343 C  
HETATM   14  H   UNL     1      -9.479  13.627  67.522  1.00  0.00     0.000 HD 
HETATM   15  O   UNL     1     -12.362  14.557  66.543  1.00  0.00    -0.346 OA 
BRANCH  13  16
HETATM   16  C   UNL     1     -10.403  15.877  66.974  1.00  0.00    -0.297 C  
BRANCH  16  17
HETATM   17  C   UNL     1     -10.856  16.812  68.088  1.00  0.00    -0.353 C  
BRANCH  17  18
HETATM   18  C   UNL     1     -10.125  16.577  69.418  1.00  0.00    -0.230 C  
BRANCH  18  19
HETATM   19  C   UNL     1     -10.788  15.580  70.378  1.00  0.00    -0.356 C  
BRANCH  19  20
HETATM   20  C   UNL     1     -12.262  15.375  70.147  1.00  0.00    -0.407 C  
HETATM   21  C   UNL     1     -12.969  14.274  70.458  1.00  0.00    -0.259 C  
HETATM   22  C   UNL     1     -12.471  13.082  71.236  1.00  0.00    -0.315 C  
HETATM   23  C   UNL     1     -11.928  11.992  70.314  1.00  0.00    -0.398 C  
HETATM   24  C   UNL     1     -13.588  12.532  72.120  1.00  0.00    -0.458 C  
ENDBRANCH  19  20
ENDBRANCH  18  19
ENDBRANCH  17  18
ENDBRANCH  16  17
ENDBRANCH  13  16
ENDBRANCH  11  12
ENDBRANCH   9  11
ENDBRANCH   2   3
TORSDOF 8
ENDMDL
MODEL      220
REMARK 921   NORMALIZED FREE ENERGY PREDICTED BY IDOCK:   -4.13 KCAL/MOL
REMARK 922        TOTAL FREE ENERGY PREDICTED BY IDOCK:   -7.27 KCAL/MOL
REMARK 923 INTER-LIGAND FREE ENERGY PREDICTED BY IDOCK:   -6.10 KCAL/MOL
REMARK 924 INTRA-LIGAND FREE ENERGY PREDICTED BY IDOCK:   -1.18 KCAL/MOL
REMARK 927      BINDING AFFINITY PREDICTED BY RF-SCORE:    0.00 PKD
ROOT
HETATM    1  C   UNL     1     -11.709  15.849  64.440  1.00  0.00    -0.179 C  
HETATM    2  O   UNL     1     -11.193  17.181  64.466  1.00  0.00    -1.104 OA 
ENDROOT
BRANCH   2   3
HETATM    3  C   UNL     1     -10.627  17.538  65.662  1.00  0.00    -0.140 A  
HETATM    4  C   UNL     1     -10.649  18.895  65.983  1.00  0.00    -0.403 A  
HETATM    5  O   UNL     1     -11.213  19.799  65.125  1.00  0.00    -0.296 OA 
HETATM    6  C   UNL     1     -10.073  19.373  67.158  1.00  0.00    -0.490 A  
HETATM    7  C   UNL     1      -9.455  18.471  68.026  1.00  0.00    -0.326 A  
HETATM    8  H   UNL     1     -11.229  20.723  65.344  1.00  0.00     0.000 HD 
HETATM    9  C   UNL     1      -9.439  17.101  67.738  1.00  0.00    -0.253 A  
HETATM   10  C   UNL     1     -10.051  16.639  66.560  1.00  0.00    -0.313 A  
BRANCH   9  11
HETATM   11  C   UNL     1      -8.707  16.120  68.614  1.00  0.00    -0.214 C  
BRANCH  11  12
HETATM   12  N   UNL     1      -8.851  14.773  68.147  1.00  0.00    -0.164 N  
HETATM   13  C   UNL     1      -7.837  14.128  67.479  1.00  0.00    -0.192 C  
HETATM   14  H   UNL     1      -9.728  14.281  68.315  1.00  0.00     0.000 HD 
HETATM   15  O   UNL     1      -6.750  14.621  67.243  1.00  0.00    -0.280 OA 
BRANCH  13  16
HETATM   16  C   UNL     1      -8.254  12.766  66.993  1.00  0.00    -0.099 C  
BRANCH  16  17
HETATM   17  C   UNL     1      -9.716  12.446  67.271  1.00  0.00    -0.201 C  
BRANCH  17  18
HETATM   18  C   UNL     1     -10.590  12.439  66.008  1.00  0.00    -0.286 C  
BRANCH  18  19
HETATM   19  C   UNL     1     -10.150  11.478  64.895  1.00  0.00    -0.314 C  
BRANCH  19  20
HETATM   20  C   UNL     1     -10.115  10.028  65.298  1.00  0.00    -0.299 C  
HETATM   21  C   UNL     1      -9.020   9.249  65.370  1.00  0.00    -0.253 C  
HETATM   22  C   UNL     1      -7.590   9.702  65.212  1.00  0.00    -0.113 C  
HETATM   23  C   UNL     1      -7.109   9.563  63.769  1.00  0.00    -0.108 C  
HETATM   24  C   UNL     1      -6.687   8.914  66.158  1.00  0.00    -0.069 C  
ENDBRANCH  19  20
ENDBRANCH  18  19
ENDBRANCH  17  18
ENDBRANCH  16  17
ENDBRANCH  13  16
ENDBRANCH  11  12
ENDBRANCH   9  11
ENDBRANCH   2   3
TORSDOF 8
ENDMDL
MODEL      221
REMARK 921   NORMALIZED FREE ENERGY PREDICTED BY IDOCK:   -4.13 KCAL/MOL
REMARK 922        TOTAL FREE ENERGY PREDICTED BY IDOCK:   -7.27 KCAL/MOL
REMARK 923 INTER-LIGAND FREE ENERGY PREDICTED BY IDOCK:   -6.27 KCAL/MOL
REMARK 924 INTRA-LIGAND FREE ENERGY PREDICTED BY IDOCK:   -1.01 KCAL/MOL
REMARK 927      BINDING AFFINITY PREDICTED BY RF-SCORE:    0.00 PKD
ROOT
HETATM    1  C   UNL     1      -7.906  19.136  68.935  1.00  0.00    -0.316 C  
HETATM    2  O   UNL     1      -7.717  17.853  68.336  1.00  0.00    -0.271 OA 
ENDROOT
BRANCH   2   3
HETATM    3  C   UNL     1      -8.881  17.175  68.086  1.00  0.00    -0.237 A  
HETATM    4  C   UNL     1      -9.064  16.705  66.786  1.00  0.00    -0.237 A  
HETATM    5  O   UNL     1      -8.111  16.928  65.830  1.00  0.00    -0.453 OA 
HETATM    6  C   UNL     1     -10.225  16.032  66.414  1.00  0.00    -0.315 A  
HETATM    7  C   UNL     1     -11.227  15.831  67.364  1.00  0.00    -0.179 A  
HETATM    8  H   UNL     1      -8.236  16.608  64.945  1.00  0.00     0.000 HD 
HETATM    9  C   UNL     1     -11.059  16.273  68.683  1.00  0.00    -0.356 A  
HETATM   10  C   UNL     1      -9.866  16.925  69.042  1.00  0.00    -0.247 A  
BRANCH   9  11
HETATM   11  C   UNL     1     -12.157  16.144  69.704  1.00  0.00     0.036 C  
BRANCH  11  12
HETATM   12  N   UNL     1     -12.422  14.775  70.035  1.00  0.00    -0.495 N  
HETATM   13  C   UNL     1     -13.168  14.430  71.137  1.00  0.00    -0.350 C  
HETATM   14  H   UNL     1     -12.047  14.038  69.438  1.00  0.00     0.000 HD 
HETATM   15  O   UNL     1     -13.672  15.231  71.902  1.00  0.00    -0.412 OA 
BRANCH  13  16
HETATM   16  C   UNL     1     -13.222  12.940  71.343  1.00  0.00    -0.262 C  
BRANCH  16  17
HETATM   17  C   UNL     1     -12.360  12.162  70.358  1.00  0.00    -0.315 C  
BRANCH  17  18
HETATM   18  C   UNL     1     -11.946  10.775  70.873  1.00  0.00    -0.438 C  
BRANCH  18  19
HETATM   19  C   UNL     1     -11.061   9.949  69.930  1.00  0.00    -0.318 C  
BRANCH  19  20
HETATM   20  C   UNL     1      -9.742  10.590  69.588  1.00  0.00    -0.092 C  
HETATM   21  C   UNL     1      -9.304  10.897  68.354  1.00  0.00    -0.172 C  
HETATM   22  C   UNL     1     -10.099  10.805  67.075  1.00  0.00    -0.249 C  
HETATM   23  C   UNL     1      -9.901   9.459  66.381  1.00  0.00    -0.337 C  
HETATM   24  C   UNL     1      -9.720  11.953  66.142  1.00  0.00    -0.251 C  
ENDBRANCH  19  20
ENDBRANCH  18  19
ENDBRANCH  17  18
ENDBRANCH  16  17
ENDBRANCH  13  16
ENDBRANCH  11  12
ENDBRANCH   9  11
ENDBRANCH   2   3
TORSDOF 8
ENDMDL
MODEL      222
REMARK 921   NORMALIZED FREE ENERGY PREDICTED BY IDOCK:   -4.13 KCAL/MOL
REMARK 922        TOTAL FREE ENERGY PREDICTED BY IDOCK:   -7.27 KCAL/MOL
REMARK 923 INTER-LIGAND FREE ENERGY PREDICTED BY IDOCK:   -6.62 KCAL/MOL
REMARK 924 INTRA-LIGAND FREE ENERGY PREDICTED BY IDOCK:   -0.65 KCAL/MOL
REMARK 927      BINDING AFFINITY PREDICTED BY RF-SCORE:    0.00 PKD
ROOT
HETATM    1  C   UNL     1     -11.136   7.689  72.815  1.00  0.00    -0.383 C  
HETATM    2  O   UNL     1     -10.272   8.819  72.679  1.00  0.00    -0.188 OA 
ENDROOT
BRANCH   2   3
HETATM    3  C   UNL     1     -10.117   9.254  71.389  1.00  0.00    -0.278 A  
HETATM    4  C   UNL     1      -8.878   9.015  70.794  1.00  0.00    -0.234 A  
HETATM    5  O   UNL     1      -7.888   8.379  71.490  1.00  0.00    -0.099 OA 
HETATM    6  C   UNL     1      -8.601   9.445  69.498  1.00  0.00    -0.158 A  
HETATM    7  C   UNL     1      -9.585  10.133  68.786  1.00  0.00    -0.170 A  
HETATM    8  H   UNL     1      -7.045   8.217  71.085  1.00  0.00     0.000 HD 
HETATM    9  C   UNL     1     -10.844  10.365  69.353  1.00  0.00    -0.287 A  
HETATM   10  C   UNL     1     -11.110   9.898  70.652  1.00  0.00    -0.409 A  
BRANCH   9  11
HETATM   11  C   UNL     1     -11.892  11.177  68.639  1.00  0.00    -0.287 C  
BRANCH  11  12
HETATM   12  N   UNL     1     -11.342  12.363  68.052  1.00  0.00    -0.265 N  
HETATM   13  C   UNL     1     -11.493  13.597  68.640  1.00  0.00    -0.307 C  
HETATM   14  H   UNL     1     -10.825  12.290  67.175  1.00  0.00     0.000 HD 
HETATM   15  O   UNL     1     -12.077  13.789  69.690  1.00  0.00    -0.318 OA 
BRANCH  13  16
HETATM   16  C   UNL     1     -10.926  14.703  67.791  1.00  0.00    -0.291 C  
BRANCH  16  17
HETATM   17  C   UNL     1     -10.224  14.204  66.537  1.00  0.00    -0.278 C  
BRANCH  17  18
HETATM   18  C   UNL     1     -10.440  15.109  65.314  1.00  0.00    -0.434 C  
BRANCH  18  19
HETATM   19  C   UNL     1     -10.386  16.619  65.582  1.00  0.00    -0.310 C  
BRANCH  19  20
HETATM   20  C   UNL     1      -9.134  17.087  66.274  1.00  0.00    -0.279 C  
HETATM   21  C   UNL     1      -8.988  18.231  66.966  1.00  0.00    -0.274 C  
HETATM   22  C   UNL     1     -10.083  19.206  67.320  1.00  0.00    -0.462 C  
HETATM   23  C   UNL     1     -10.212  20.315  66.278  1.00  0.00    -0.447 C  
HETATM   24  C   UNL     1      -9.828  19.795  68.706  1.00  0.00    -0.464 C  
ENDBRANCH  19  20
ENDBRANCH  18  19
ENDBRANCH  17  18
ENDBRANCH  16  17
ENDBRANCH  13  16
ENDBRANCH  11  12
ENDBRANCH   9  11
ENDBRANCH   2   3
TORSDOF 8
ENDMDL
MODEL      223
REMARK 921   NORMALIZED FREE ENERGY PREDICTED BY IDOCK:   -4.12 KCAL/MOL
REMARK 922        TOTAL FREE ENERGY PREDICTED BY IDOCK:   -7.27 KCAL/MOL
REMARK 923 INTER-LIGAND FREE ENERGY PREDICTED BY IDOCK:   -6.70 KCAL/MOL
REMARK 924 INTRA-LIGAND FREE ENERGY PREDICTED BY IDOCK:   -0.57 KCAL/MOL
REMARK 927      BINDING AFFINITY PREDICTED BY RF-SCORE:    0.00 PKD
ROOT
HETATM    1  C   UNL     1      -5.539  15.589  69.996  1.00  0.00    -0.135 C  
HETATM    2  O   UNL     1      -5.172  16.819  70.623  1.00  0.00    -0.207 OA 
ENDROOT
BRANCH   2   3
HETATM    3  C   UNL     1      -5.609  17.937  69.961  1.00  0.00    -0.241 A  
HETATM    4  C   UNL     1      -5.583  19.136  70.673  1.00  0.00    -0.210 A  
HETATM    5  O   UNL     1      -5.139  19.161  71.966  1.00  0.00    -0.709 OA 
HETATM    6  C   UNL     1      -6.036  20.325  70.108  1.00  0.00    -0.386 A  
HETATM    7  C   UNL     1      -6.531  20.312  68.804  1.00  0.00    -0.334 A  
HETATM    8  H   UNL     1      -5.121  19.978  72.451  1.00  0.00     0.000 HD 
HETATM    9  C   UNL     1      -6.548  19.126  68.059  1.00  0.00    -0.258 A  
HETATM   10  C   UNL     1      -6.060  17.943  68.640  1.00  0.00    -0.197 A  
BRANCH   9  11
HETATM   11  C   UNL     1      -7.154  19.068  66.682  1.00  0.00    -0.211 C  
BRANCH  11  12
HETATM   12  N   UNL     1      -7.755  17.795  66.415  1.00  0.00    -0.265 N  
HETATM   13  C   UNL     1      -9.120  17.631  66.392  1.00  0.00    -0.234 C  
HETATM   14  H   UNL     1      -7.154  16.990  66.236  1.00  0.00     0.000 HD 
HETATM   15  O   UNL     1      -9.921  18.528  66.576  1.00  0.00    -0.338 OA 
BRANCH  13  16
HETATM   16  C   UNL     1      -9.516  16.192  66.198  1.00  0.00    -0.362 C  
BRANCH  16  17
HETATM   17  C   UNL     1     -10.136  15.563  67.438  1.00  0.00    -0.246 C  
BRANCH  17  18
HETATM   18  C   UNL     1     -10.873  14.246  67.151  1.00  0.00    -0.296 C  
BRANCH  18  19
HETATM   19  C   UNL     1     -10.928  13.244  68.312  1.00  0.00    -0.280 C  
BRANCH  19  20
HETATM   20  C   UNL     1     -11.905  12.115  68.117  1.00  0.00    -0.362 C  
HETATM   21  C   UNL     1     -11.971  10.987  68.846  1.00  0.00    -0.332 C  
HETATM   22  C   UNL     1     -11.187  10.685  70.099  1.00  0.00    -0.378 C  
HETATM   23  C   UNL     1      -9.890   9.939  69.789  1.00  0.00    -0.268 C  
HETATM   24  C   UNL     1     -12.048   9.885  71.073  1.00  0.00    -0.450 C  
ENDBRANCH  19  20
ENDBRANCH  18  19
ENDBRANCH  17  18
ENDBRANCH  16  17
ENDBRANCH  13  16
ENDBRANCH  11  12
ENDBRANCH   9  11
ENDBRANCH   2   3
TORSDOF 8
ENDMDL
MODEL      224
REMARK 921   NORMALIZED FREE ENERGY PREDICTED BY IDOCK:   -4.11 KCAL/MOL
REMARK 922        TOTAL FREE ENERGY PREDICTED BY IDOCK:   -7.25 KCAL/MOL
REMARK 923 INTER-LIGAND FREE ENERGY PREDICTED BY IDOCK:   -5.80 KCAL/MOL
REMARK 924 INTRA-LIGAND FREE ENERGY PREDICTED BY IDOCK:   -1.45 KCAL/MOL
REMARK 927      BINDING AFFINITY PREDICTED BY RF-SCORE:    0.00 PKD
ROOT
HETATM    1  C   UNL     1     -10.960   6.282  67.988  1.00  0.00    -0.327 C  
HETATM    2  O   UNL     1     -10.308   6.867  69.117  1.00  0.00    -0.180 OA 
ENDROOT
BRANCH   2   3
HETATM    3  C   UNL     1      -9.625   8.021  68.833  1.00  0.00    -0.152 A  
HETATM    4  C   UNL     1      -9.569   8.979  69.845  1.00  0.00    -0.183 A  
HETATM    5  O   UNL     1     -10.177   8.749  71.048  1.00  0.00    -0.204 OA 
HETATM    6  C   UNL     1      -8.930  10.201  69.653  1.00  0.00    -0.190 A  
HETATM    7  C   UNL     1      -8.340  10.472  68.417  1.00  0.00    -0.126 A  
HETATM    8  H   UNL     1     -10.139   9.401  71.738  1.00  0.00     0.000 HD 
HETATM    9  C   UNL     1      -8.363   9.518  67.392  1.00  0.00    -0.125 A  
HETATM   10  C   UNL     1      -8.990   8.281  67.619  1.00  0.00    -0.140 A  
BRANCH   9  11
HETATM   11  C   UNL     1      -7.808   9.818  66.025  1.00  0.00    -0.107 C  
BRANCH  11  12
HETATM   12  N   UNL     1      -8.790  10.413  65.168  1.00  0.00    -0.180 N  
HETATM   13  C   UNL     1      -8.624  10.459  63.803  1.00  0.00    -0.177 C  
HETATM   14  H   UNL     1      -9.632  10.813  65.580  1.00  0.00     0.000 HD 
HETATM   15  O   UNL     1      -7.664   9.998  63.213  1.00  0.00    -0.139 OA 
BRANCH  13  16
HETATM   16  C   UNL     1      -9.727  11.224  63.122  1.00  0.00    -0.408 C  
BRANCH  16  17
HETATM   17  C   UNL     1     -11.007  11.298  63.943  1.00  0.00    -0.382 C  
BRANCH  17  18
HETATM   18  C   UNL     1     -11.766  12.622  63.772  1.00  0.00    -0.566 C  
BRANCH  18  19
HETATM   19  C   UNL     1     -12.870  12.899  64.801  1.00  0.00    -0.359 C  
BRANCH  19  20
HETATM   20  C   UNL     1     -12.658  14.141  65.626  1.00  0.00    -0.495 C  
HETATM   21  C   UNL     1     -11.936  14.230  66.757  1.00  0.00    -0.462 C  
HETATM   22  C   UNL     1     -11.065  13.149  67.349  1.00  0.00    -0.301 C  
HETATM   23  C   UNL     1     -11.826  12.306  68.370  1.00  0.00    -0.358 C  
HETATM   24  C   UNL     1      -9.821  13.770  67.981  1.00  0.00    -0.239 C  
ENDBRANCH  19  20
ENDBRANCH  18  19
ENDBRANCH  17  18
ENDBRANCH  16  17
ENDBRANCH  13  16
ENDBRANCH  11  12
ENDBRANCH   9  11
ENDBRANCH   2   3
TORSDOF 8
ENDMDL
MODEL      225
REMARK 921   NORMALIZED FREE ENERGY PREDICTED BY IDOCK:   -4.11 KCAL/MOL
REMARK 922        TOTAL FREE ENERGY PREDICTED BY IDOCK:   -7.25 KCAL/MOL
REMARK 923 INTER-LIGAND FREE ENERGY PREDICTED BY IDOCK:   -5.97 KCAL/MOL
REMARK 924 INTRA-LIGAND FREE ENERGY PREDICTED BY IDOCK:   -1.28 KCAL/MOL
REMARK 927      BINDING AFFINITY PREDICTED BY RF-SCORE:    0.00 PKD
ROOT
HETATM    1  C   UNL     1     -12.526  11.695  71.174  1.00  0.00    -0.307 C  
HETATM    2  O   UNL     1     -11.580  11.622  70.106  1.00  0.00    -0.289 OA 
ENDROOT
BRANCH   2   3
HETATM    3  C   UNL     1     -11.606  12.700  69.260  1.00  0.00    -0.318 A  
HETATM    4  C   UNL     1     -11.823  12.429  67.909  1.00  0.00    -0.308 A  
HETATM    5  O   UNL     1     -11.995  11.141  67.482  1.00  0.00    -0.580 OA 
HETATM    6  C   UNL     1     -11.835  13.446  66.958  1.00  0.00    -0.443 A  
HETATM    7  C   UNL     1     -11.619  14.762  67.369  1.00  0.00    -0.377 A  
HETATM    8  H   UNL     1     -12.143  10.957  66.562  1.00  0.00     0.000 HD 
HETATM    9  C   UNL     1     -11.421  15.063  68.722  1.00  0.00    -0.337 A  
HETATM   10  C   UNL     1     -11.440  14.024  69.668  1.00  0.00    -0.317 A  
BRANCH   9  11
HETATM   11  C   UNL     1     -11.103  16.462  69.180  1.00  0.00    -0.303 C  
BRANCH  11  12
HETATM   12  N   UNL     1     -10.017  17.034  68.439  1.00  0.00    -0.273 N  
HETATM   13  C   UNL     1      -9.749  18.382  68.476  1.00  0.00    -0.361 C  
HETATM   14  H   UNL     1      -9.429  16.425  67.870  1.00  0.00     0.000 HD 
HETATM   15  O   UNL     1     -10.379  19.189  69.134  1.00  0.00    -0.218 OA 
BRANCH  13  16
HETATM   16  C   UNL     1      -8.635  18.765  67.540  1.00  0.00    -0.292 C  
BRANCH  16  17
HETATM   17  C   UNL     1      -7.319  18.064  67.846  1.00  0.00    -0.224 C  
BRANCH  17  18
HETATM   18  C   UNL     1      -6.906  17.044  66.774  1.00  0.00    -0.265 C  
BRANCH  18  19
HETATM   19  C   UNL     1      -6.913  15.573  67.211  1.00  0.00    -0.206 C  
BRANCH  19  20
HETATM   20  C   UNL     1      -7.122  15.361  68.687  1.00  0.00    -0.116 C  
HETATM   21  C   UNL     1      -7.229  14.175  69.313  1.00  0.00    -0.049 C  
HETATM   22  C   UNL     1      -7.009  12.816  68.694  1.00  0.00    -0.101 C  
HETATM   23  C   UNL     1      -8.313  12.214  68.176  1.00  0.00    -0.170 C  
HETATM   24  C   UNL     1      -6.350  11.883  69.707  1.00  0.00    -0.118 C  
ENDBRANCH  19  20
ENDBRANCH  18  19
ENDBRANCH  17  18
ENDBRANCH  16  17
ENDBRANCH  13  16
ENDBRANCH  11  12
ENDBRANCH   9  11
ENDBRANCH   2   3
TORSDOF 8
ENDMDL
MODEL      226
REMARK 921   NORMALIZED FREE ENERGY PREDICTED BY IDOCK:   -4.11 KCAL/MOL
REMARK 922        TOTAL FREE ENERGY PREDICTED BY IDOCK:   -7.25 KCAL/MOL
REMARK 923 INTER-LIGAND FREE ENERGY PREDICTED BY IDOCK:   -6.51 KCAL/MOL
REMARK 924 INTRA-LIGAND FREE ENERGY PREDICTED BY IDOCK:   -0.74 KCAL/MOL
REMARK 927      BINDING AFFINITY PREDICTED BY RF-SCORE:    0.00 PKD
ROOT
HETATM    1  C   UNL     1     -12.063  15.597  64.082  1.00  0.00     0.009 C  
HETATM    2  O   UNL     1     -11.325  16.784  64.378  1.00  0.00    -1.089 OA 
ENDROOT
BRANCH   2   3
HETATM    3  C   UNL     1     -10.799  16.815  65.642  1.00  0.00    -0.107 A  
HETATM    4  C   UNL     1     -10.506  18.075  66.167  1.00  0.00    -0.331 A  
HETATM    5  O   UNL     1     -10.742  19.202  65.429  1.00  0.00    -0.503 OA 
HETATM    6  C   UNL     1      -9.937  18.220  67.429  1.00  0.00    -0.344 A  
HETATM    7  C   UNL     1      -9.650  17.080  68.180  1.00  0.00    -0.266 A  
HETATM    8  H   UNL     1     -10.543  20.059  65.786  1.00  0.00     0.000 HD 
HETATM    9  C   UNL     1      -9.954  15.806  67.687  1.00  0.00    -0.239 A  
HETATM   10  C   UNL     1     -10.554  15.684  66.421  1.00  0.00    -0.308 A  
BRANCH   9  11
HETATM   11  C   UNL     1      -9.578  14.558  68.440  1.00  0.00    -0.213 C  
BRANCH  11  12
HETATM   12  N   UNL     1     -10.181  13.388  67.873  1.00  0.00    -0.235 N  
HETATM   13  C   UNL     1     -11.263  12.777  68.461  1.00  0.00    -0.279 C  
HETATM   14  H   UNL     1      -9.797  12.999  67.012  1.00  0.00     0.000 HD 
HETATM   15  O   UNL     1     -11.804  13.170  69.478  1.00  0.00    -0.299 OA 
BRANCH  13  16
HETATM   16  C   UNL     1     -11.656  11.510  67.750  1.00  0.00    -0.338 C  
BRANCH  16  17
HETATM   17  C   UNL     1     -10.712  11.136  66.615  1.00  0.00    -0.322 C  
BRANCH  17  18
HETATM   18  C   UNL     1      -9.818   9.929  66.936  1.00  0.00    -0.252 C  
BRANCH  18  19
HETATM   19  C   UNL     1     -10.272   9.054  68.112  1.00  0.00    -0.247 C  
BRANCH  19  20
HETATM   20  C   UNL     1     -10.638   7.643  67.737  1.00  0.00    -0.265 C  
HETATM   21  C   UNL     1     -10.429   6.543  68.481  1.00  0.00    -0.257 C  
HETATM   22  C   UNL     1      -9.926   6.508  69.904  1.00  0.00    -0.191 C  
HETATM   23  C   UNL     1      -8.407   6.357  69.963  1.00  0.00    -0.130 C  
HETATM   24  C   UNL     1     -10.611   5.380  70.671  1.00  0.00    -0.302 C  
ENDBRANCH  19  20
ENDBRANCH  18  19
ENDBRANCH  17  18
ENDBRANCH  16  17
ENDBRANCH  13  16
ENDBRANCH  11  12
ENDBRANCH   9  11
ENDBRANCH   2   3
TORSDOF 8
ENDMDL
MODEL      227
REMARK 921   NORMALIZED FREE ENERGY PREDICTED BY IDOCK:   -4.11 KCAL/MOL
REMARK 922        TOTAL FREE ENERGY PREDICTED BY IDOCK:   -7.24 KCAL/MOL
REMARK 923 INTER-LIGAND FREE ENERGY PREDICTED BY IDOCK:   -6.59 KCAL/MOL
REMARK 924 INTRA-LIGAND FREE ENERGY PREDICTED BY IDOCK:   -0.65 KCAL/MOL
REMARK 927      BINDING AFFINITY PREDICTED BY RF-SCORE:    0.00 PKD
ROOT
HETATM    1  C   UNL     1      -8.004  14.858  68.830  1.00  0.00    -0.156 C  
HETATM    2  O   UNL     1      -9.386  15.216  68.777  1.00  0.00    -0.184 OA 
ENDROOT
BRANCH   2   3
HETATM    3  C   UNL     1     -10.145  14.404  67.976  1.00  0.00    -0.232 A  
HETATM    4  C   UNL     1     -10.789  15.014  66.899  1.00  0.00    -0.315 A  
HETATM    5  O   UNL     1     -10.651  16.358  66.682  1.00  0.00    -0.302 OA 
HETATM    6  C   UNL     1     -11.612  14.290  66.041  1.00  0.00    -0.362 A  
HETATM    7  C   UNL     1     -11.799  12.926  66.270  1.00  0.00    -0.477 A  
HETATM    8  H   UNL     1     -11.088  16.773  65.949  1.00  0.00     0.000 HD 
HETATM    9  C   UNL     1     -11.147  12.285  67.331  1.00  0.00    -0.333 A  
HETATM   10  C   UNL     1     -10.299  13.031  68.167  1.00  0.00    -0.244 A  
BRANCH   9  11
HETATM   11  C   UNL     1     -11.398  10.835  67.649  1.00  0.00    -0.252 C  
BRANCH  11  12
HETATM   12  N   UNL     1     -11.923  10.661  68.971  1.00  0.00    -0.527 N  
HETATM   13  C   UNL     1     -11.163  10.127  69.985  1.00  0.00    -0.299 C  
HETATM   14  H   UNL     1     -12.884  10.940  69.165  1.00  0.00     0.000 HD 
HETATM   15  O   UNL     1     -10.003   9.777  69.862  1.00  0.00    -0.217 OA 
BRANCH  13  16
HETATM   16  C   UNL     1     -11.954   9.941  71.251  1.00  0.00    -0.489 C  
BRANCH  16  17
HETATM   17  C   UNL     1     -12.232   8.481  71.582  1.00  0.00    -0.371 C  
BRANCH  17  18
HETATM   18  C   UNL     1     -11.464   7.976  72.812  1.00  0.00    -0.420 C  
BRANCH  18  19
HETATM   19  C   UNL     1      -9.934   8.006  72.704  1.00  0.00    -0.358 C  
BRANCH  19  20
HETATM   20  C   UNL     1      -9.211   7.463  73.908  1.00  0.00    -0.312 C  
HETATM   21  C   UNL     1      -9.039   6.164  74.213  1.00  0.00    -0.148 C  
HETATM   22  C   UNL     1      -9.397   4.987  73.340  1.00  0.00    -0.141 C  
HETATM   23  C   UNL     1     -10.799   4.464  73.643  1.00  0.00    -0.367 C  
HETATM   24  C   UNL     1      -8.360   3.879  73.509  1.00  0.00    -0.088 C  
ENDBRANCH  19  20
ENDBRANCH  18  19
ENDBRANCH  17  18
ENDBRANCH  16  17
ENDBRANCH  13  16
ENDBRANCH  11  12
ENDBRANCH   9  11
ENDBRANCH   2   3
TORSDOF 8
ENDMDL
MODEL      228
REMARK 921   NORMALIZED FREE ENERGY PREDICTED BY IDOCK:   -4.10 KCAL/MOL
REMARK 922        TOTAL FREE ENERGY PREDICTED BY IDOCK:   -7.24 KCAL/MOL
REMARK 923 INTER-LIGAND FREE ENERGY PREDICTED BY IDOCK:   -6.58 KCAL/MOL
REMARK 924 INTRA-LIGAND FREE ENERGY PREDICTED BY IDOCK:   -0.65 KCAL/MOL
REMARK 927      BINDING AFFINITY PREDICTED BY RF-SCORE:    0.00 PKD
ROOT
HETATM    1  C   UNL     1      -6.013  17.534  67.801  1.00  0.00    -0.149 C  
HETATM    2  O   UNL     1      -6.467  18.888  67.838  1.00  0.00    -0.211 OA 
ENDROOT
BRANCH   2   3
HETATM    3  C   UNL     1      -7.816  19.031  67.650  1.00  0.00    -0.243 A  
HETATM    4  C   UNL     1      -8.273  20.315  67.351  1.00  0.00    -0.338 A  
HETATM    5  O   UNL     1      -7.392  21.357  67.260  1.00  0.00    -0.759 OA 
HETATM    6  C   UNL     1      -9.628  20.580  67.174  1.00  0.00    -0.570 A  
HETATM    7  C   UNL     1     -10.547  19.538  67.305  1.00  0.00    -0.610 A  
HETATM    8  H   UNL     1      -7.703  22.231  67.056  1.00  0.00     0.000 HD 
HETATM    9  C   UNL     1     -10.113  18.236  67.582  1.00  0.00    -0.368 A  
HETATM   10  C   UNL     1      -8.737  17.986  67.729  1.00  0.00    -0.251 A  
BRANCH   9  11
HETATM   11  C   UNL     1     -11.088  17.112  67.811  1.00  0.00    -0.065 C  
BRANCH  11  12
HETATM   12  N   UNL     1     -10.426  15.895  68.176  1.00  0.00    -0.262 N  
HETATM   13  C   UNL     1     -10.497  14.770  67.389  1.00  0.00    -0.256 C  
HETATM   14  H   UNL     1      -9.889  15.862  69.043  1.00  0.00     0.000 HD 
HETATM   15  O   UNL     1     -11.097  14.710  66.331  1.00  0.00    -0.323 OA 
BRANCH  13  16
HETATM   16  C   UNL     1      -9.816  13.587  68.025  1.00  0.00    -0.238 C  
BRANCH  16  17
HETATM   17  C   UNL     1     -10.786  12.609  68.673  1.00  0.00    -0.281 C  
BRANCH  17  18
HETATM   18  C   UNL     1     -10.731  11.200  68.062  1.00  0.00    -0.254 C  
BRANCH  18  19
HETATM   19  C   UNL     1     -10.601  11.138  66.534  1.00  0.00    -0.314 C  
BRANCH  19  20
HETATM   20  C   UNL     1     -10.079   9.829  66.004  1.00  0.00    -0.322 C  
HETATM   21  C   UNL     1      -9.434   9.644  64.839  1.00  0.00    -0.288 C  
HETATM   22  C   UNL     1      -8.966  10.725  63.895  1.00  0.00    -0.166 C  
HETATM   23  C   UNL     1     -10.007  11.024  62.818  1.00  0.00    -0.193 C  
HETATM   24  C   UNL     1      -7.635  10.324  63.263  1.00  0.00    -0.124 C  
ENDBRANCH  19  20
ENDBRANCH  18  19
ENDBRANCH  17  18
ENDBRANCH  16  17
ENDBRANCH  13  16
ENDBRANCH  11  12
ENDBRANCH   9  11
ENDBRANCH   2   3
TORSDOF 8
ENDMDL
MODEL      229
REMARK 921   NORMALIZED FREE ENERGY PREDICTED BY IDOCK:   -4.10 KCAL/MOL
REMARK 922        TOTAL FREE ENERGY PREDICTED BY IDOCK:   -7.23 KCAL/MOL
REMARK 923 INTER-LIGAND FREE ENERGY PREDICTED BY IDOCK:   -5.97 KCAL/MOL
REMARK 924 INTRA-LIGAND FREE ENERGY PREDICTED BY IDOCK:   -1.27 KCAL/MOL
REMARK 927      BINDING AFFINITY PREDICTED BY RF-SCORE:    0.00 PKD
ROOT
HETATM    1  C   UNL     1     -10.952  14.097  64.884  1.00  0.00    -0.397 C  
HETATM    2  O   UNL     1     -10.931  15.190  65.803  1.00  0.00    -0.336 OA 
ENDROOT
BRANCH   2   3
HETATM    3  C   UNL     1     -11.153  14.831  67.106  1.00  0.00    -0.333 A  
HETATM    4  C   UNL     1     -11.116  15.855  68.053  1.00  0.00    -0.334 A  
HETATM    5  O   UNL     1     -10.864  17.143  67.667  1.00  0.00    -0.332 OA 
HETATM    6  C   UNL     1     -11.295  15.597  69.409  1.00  0.00    -0.332 A  
HETATM    7  C   UNL     1     -11.510  14.283  69.828  1.00  0.00    -0.317 A  
HETATM    8  H   UNL     1     -10.839  17.840  68.311  1.00  0.00     0.000 HD 
HETATM    9  C   UNL     1     -11.575  13.239  68.896  1.00  0.00    -0.357 A  
HETATM   10  C   UNL     1     -11.419  13.528  67.529  1.00  0.00    -0.361 A  
BRANCH   9  11
HETATM   11  C   UNL     1     -11.722  11.805  69.328  1.00  0.00    -0.335 C  
BRANCH  11  12
HETATM   12  N   UNL     1     -10.455  11.145  69.435  1.00  0.00    -0.407 N  
HETATM   13  C   UNL     1     -10.329   9.916  70.039  1.00  0.00    -0.272 C  
HETATM   14  H   UNL     1      -9.625  11.598  69.052  1.00  0.00     0.000 HD 
HETATM   15  O   UNL     1     -11.257   9.287  70.512  1.00  0.00    -0.246 OA 
BRANCH  13  16
HETATM   16  C   UNL     1      -8.894   9.472  70.129  1.00  0.00    -0.266 C  
BRANCH  16  17
HETATM   17  C   UNL     1      -7.897  10.578  69.811  1.00  0.00    -0.048 C  
BRANCH  17  18
HETATM   18  C   UNL     1      -7.170  10.379  68.473  1.00  0.00    -0.084 C  
BRANCH  18  19
HETATM   19  C   UNL     1      -6.994   8.924  68.017  1.00  0.00    -0.078 C  
BRANCH  19  20
HETATM   20  C   UNL     1      -7.119   8.716  66.531  1.00  0.00    -0.080 C  
HETATM   21  C   UNL     1      -8.228   8.899  65.792  1.00  0.00    -0.116 C  
HETATM   22  C   UNL     1      -9.530   9.496  66.269  1.00  0.00    -0.267 C  
HETATM   23  C   UNL     1     -10.503   8.421  66.747  1.00  0.00    -0.315 C  
HETATM   24  C   UNL     1     -10.156  10.334  65.157  1.00  0.00    -0.355 C  
ENDBRANCH  19  20
ENDBRANCH  18  19
ENDBRANCH  17  18
ENDBRANCH  16  17
ENDBRANCH  13  16
ENDBRANCH  11  12
ENDBRANCH   9  11
ENDBRANCH   2   3
TORSDOF 8
ENDMDL
MODEL      230
REMARK 921   NORMALIZED FREE ENERGY PREDICTED BY IDOCK:   -4.10 KCAL/MOL
REMARK 922        TOTAL FREE ENERGY PREDICTED BY IDOCK:   -7.23 KCAL/MOL
REMARK 923 INTER-LIGAND FREE ENERGY PREDICTED BY IDOCK:   -6.68 KCAL/MOL
REMARK 924 INTRA-LIGAND FREE ENERGY PREDICTED BY IDOCK:   -0.55 KCAL/MOL
REMARK 927      BINDING AFFINITY PREDICTED BY RF-SCORE:    0.00 PKD
ROOT
HETATM    1  C   UNL     1     -11.902  14.766  66.705  1.00  0.00    -0.242 C  
HETATM    2  O   UNL     1     -12.626  13.844  65.888  1.00  0.00    -0.478 OA 
ENDROOT
BRANCH   2   3
HETATM    3  C   UNL     1     -11.837  12.928  65.244  1.00  0.00    -0.392 A  
HETATM    4  C   UNL     1     -11.746  13.046  63.857  1.00  0.00    -0.468 A  
HETATM    5  O   UNL     1     -12.425  14.036  63.203  1.00  0.00    -1.137 OA 
HETATM    6  C   UNL     1     -10.999  12.147  63.100  1.00  0.00    -0.247 A  
HETATM    7  C   UNL     1     -10.333  11.105  63.745  1.00  0.00    -0.447 A  
HETATM    8  H   UNL     1     -12.363  14.117  62.259  1.00  0.00     0.000 HD 
HETATM    9  C   UNL     1     -10.389  10.977  65.138  1.00  0.00    -0.346 A  
HETATM   10  C   UNL     1     -11.127  11.911  65.885  1.00  0.00    -0.365 A  
BRANCH   9  11
HETATM   11  C   UNL     1      -9.750   9.814  65.849  1.00  0.00    -0.266 C  
BRANCH  11  12
HETATM   12  N   UNL     1      -9.699  10.016  67.267  1.00  0.00    -0.162 N  
HETATM   13  C   UNL     1      -8.655   9.542  68.027  1.00  0.00    -0.120 C  
HETATM   14  H   UNL     1     -10.456  10.524  67.724  1.00  0.00     0.000 HD 
HETATM   15  O   UNL     1      -7.699   8.939  67.577  1.00  0.00    -0.098 OA 
BRANCH  13  16
HETATM   16  C   UNL     1      -8.870   9.778  69.497  1.00  0.00    -0.202 C  
BRANCH  16  17
HETATM   17  C   UNL     1      -7.876   9.036  70.380  1.00  0.00    -0.121 C  
BRANCH  17  18
HETATM   18  C   UNL     1      -8.533   7.990  71.293  1.00  0.00    -0.138 C  
BRANCH  18  19
HETATM   19  C   UNL     1      -9.917   8.359  71.845  1.00  0.00    -0.331 C  
BRANCH  19  20
HETATM   20  C   UNL     1     -11.059   8.087  70.902  1.00  0.00    -0.271 C  
HETATM   21  C   UNL     1     -12.020   8.958  70.546  1.00  0.00    -0.009 C  
HETATM   22  C   UNL     1     -12.069  10.425  70.893  1.00  0.00    -0.477 C  
HETATM   23  C   UNL     1     -12.865  10.678  72.171  1.00  0.00    -0.239 C  
HETATM   24  C   UNL     1     -12.656  11.217  69.726  1.00  0.00    -0.129 C  
ENDBRANCH  19  20
ENDBRANCH  18  19
ENDBRANCH  17  18
ENDBRANCH  16  17
ENDBRANCH  13  16
ENDBRANCH  11  12
ENDBRANCH   9  11
ENDBRANCH   2   3
TORSDOF 8
ENDMDL
MODEL      231
REMARK 921   NORMALIZED FREE ENERGY PREDICTED BY IDOCK:   -4.10 KCAL/MOL
REMARK 922        TOTAL FREE ENERGY PREDICTED BY IDOCK:   -7.23 KCAL/MOL
REMARK 923 INTER-LIGAND FREE ENERGY PREDICTED BY IDOCK:   -6.43 KCAL/MOL
REMARK 924 INTRA-LIGAND FREE ENERGY PREDICTED BY IDOCK:   -0.80 KCAL/MOL
REMARK 927      BINDING AFFINITY PREDICTED BY RF-SCORE:    0.00 PKD
ROOT
HETATM    1  C   UNL     1     -12.457  12.536  63.555  1.00  0.00    -0.459 C  
HETATM    2  O   UNL     1     -11.268  11.756  63.415  1.00  0.00    -0.395 OA 
ENDROOT
BRANCH   2   3
HETATM    3  C   UNL     1     -10.786  11.253  64.595  1.00  0.00    -0.303 A  
HETATM    4  C   UNL     1      -9.904  10.176  64.501  1.00  0.00    -0.264 A  
HETATM    5  O   UNL     1      -9.560   9.670  63.278  1.00  0.00    -0.512 OA 
HETATM    6  C   UNL     1      -9.380   9.566  65.638  1.00  0.00    -0.302 A  
HETATM    7  C   UNL     1      -9.752  10.041  66.896  1.00  0.00    -0.237 A  
HETATM    8  H   UNL     1      -8.959   8.937  63.214  1.00  0.00     0.000 HD 
HETATM    9  C   UNL     1     -10.619  11.135  67.017  1.00  0.00    -0.295 A  
HETATM   10  C   UNL     1     -11.113  11.752  65.855  1.00  0.00    -0.355 A  
BRANCH   9  11
HETATM   11  C   UNL     1     -11.101  11.612  68.361  1.00  0.00    -0.234 C  
BRANCH  11  12
HETATM   12  N   UNL     1     -10.479  12.844  68.746  1.00  0.00    -0.386 N  
HETATM   13  C   UNL     1     -11.186  14.022  68.807  1.00  0.00    -0.271 C  
HETATM   14  H   UNL     1      -9.487  12.848  68.981  1.00  0.00     0.000 HD 
HETATM   15  O   UNL     1     -12.374  14.122  68.562  1.00  0.00    -0.244 OA 
BRANCH  13  16
HETATM   16  C   UNL     1     -10.305  15.198  69.130  1.00  0.00    -0.249 C  
BRANCH  16  17
HETATM   17  C   UNL     1     -10.039  16.101  67.933  1.00  0.00    -0.244 C  
BRANCH  17  18
HETATM   18  C   UNL     1     -10.087  17.598  68.273  1.00  0.00    -0.362 C  
BRANCH  18  19
HETATM   19  C   UNL     1      -8.735  18.323  68.293  1.00  0.00    -0.302 C  
BRANCH  19  20
HETATM   20  C   UNL     1      -7.579  17.505  67.782  1.00  0.00    -0.197 C  
HETATM   21  C   UNL     1      -6.400  17.319  68.402  1.00  0.00    -0.162 C  
HETATM   22  C   UNL     1      -6.048  17.762  69.801  1.00  0.00    -0.213 C  
HETATM   23  C   UNL     1      -5.386  19.138  69.809  1.00  0.00    -0.217 C  
HETATM   24  C   UNL     1      -5.143  16.725  70.463  1.00  0.00    -0.224 C  
ENDBRANCH  19  20
ENDBRANCH  18  19
ENDBRANCH  17  18
ENDBRANCH  16  17
ENDBRANCH  13  16
ENDBRANCH  11  12
ENDBRANCH   9  11
ENDBRANCH   2   3
TORSDOF 8
ENDMDL
MODEL      232
REMARK 921   NORMALIZED FREE ENERGY PREDICTED BY IDOCK:   -4.08 KCAL/MOL
REMARK 922        TOTAL FREE ENERGY PREDICTED BY IDOCK:   -7.21 KCAL/MOL
REMARK 923 INTER-LIGAND FREE ENERGY PREDICTED BY IDOCK:   -6.25 KCAL/MOL
REMARK 924 INTRA-LIGAND FREE ENERGY PREDICTED BY IDOCK:   -0.96 KCAL/MOL
REMARK 927      BINDING AFFINITY PREDICTED BY RF-SCORE:    0.00 PKD
ROOT
HETATM    1  C   UNL     1      -9.195   7.351  73.934  1.00  0.00    -0.265 C  
HETATM    2  O   UNL     1     -10.455   7.703  73.360  1.00  0.00    -0.351 OA 
ENDROOT
BRANCH   2   3
HETATM    3  C   UNL     1     -10.510   7.562  71.999  1.00  0.00    -0.208 A  
HETATM    4  C   UNL     1     -11.557   6.792  71.491  1.00  0.00    -0.300 A  
HETATM    5  O   UNL     1     -12.465   6.218  72.337  1.00  0.00    -0.546 OA 
HETATM    6  C   UNL     1     -11.688   6.556  70.125  1.00  0.00    -0.419 A  
HETATM    7  C   UNL     1     -10.746   7.099  69.249  1.00  0.00    -0.231 A  
HETATM    8  H   UNL     1     -13.178   5.694  71.991  1.00  0.00     0.000 HD 
HETATM    9  C   UNL     1      -9.699   7.894  69.731  1.00  0.00    -0.176 A  
HETATM   10  C   UNL     1      -9.603   8.141  71.111  1.00  0.00    -0.196 A  
BRANCH   9  11
HETATM   11  C   UNL     1      -8.625   8.420  68.817  1.00  0.00    -0.135 C  
BRANCH  11  12
HETATM   12  N   UNL     1      -9.065   9.564  68.076  1.00  0.00    -0.123 N  
HETATM   13  C   UNL     1      -8.848   9.676  66.722  1.00  0.00    -0.135 C  
HETATM   14  H   UNL     1      -9.553  10.315  68.564  1.00  0.00     0.000 HD 
HETATM   15  O   UNL     1      -8.291   8.831  66.046  1.00  0.00    -0.116 OA 
BRANCH  13  16
HETATM   16  C   UNL     1      -9.301  11.005  66.182  1.00  0.00    -0.214 C  
BRANCH  16  17
HETATM   17  C   UNL     1     -10.101  10.892  64.891  1.00  0.00    -0.374 C  
BRANCH  17  18
HETATM   18  C   UNL     1     -11.226  11.932  64.777  1.00  0.00    -0.356 C  
BRANCH  18  19
HETATM   19  C   UNL     1     -11.834  12.409  66.103  1.00  0.00    -0.442 C  
BRANCH  19  20
HETATM   20  C   UNL     1     -12.137  13.882  66.158  1.00  0.00    -0.478 C  
HETATM   21  C   UNL     1     -11.278  14.859  66.501  1.00  0.00    -0.335 C  
HETATM   22  C   UNL     1      -9.799  14.700  66.751  1.00  0.00    -0.262 C  
HETATM   23  C   UNL     1      -9.498  14.459  68.229  1.00  0.00    -0.207 C  
HETATM   24  C   UNL     1      -9.049  15.928  66.241  1.00  0.00    -0.379 C  
ENDBRANCH  19  20
ENDBRANCH  18  19
ENDBRANCH  17  18
ENDBRANCH  16  17
ENDBRANCH  13  16
ENDBRANCH  11  12
ENDBRANCH   9  11
ENDBRANCH   2   3
TORSDOF 8
ENDMDL
MODEL      233
REMARK 921   NORMALIZED FREE ENERGY PREDICTED BY IDOCK:   -4.06 KCAL/MOL
REMARK 922        TOTAL FREE ENERGY PREDICTED BY IDOCK:   -7.17 KCAL/MOL
REMARK 923 INTER-LIGAND FREE ENERGY PREDICTED BY IDOCK:   -6.56 KCAL/MOL
REMARK 924 INTRA-LIGAND FREE ENERGY PREDICTED BY IDOCK:   -0.61 KCAL/MOL
REMARK 927      BINDING AFFINITY PREDICTED BY RF-SCORE:    0.00 PKD
ROOT
HETATM    1  C   UNL     1     -10.991   8.290  71.013  1.00  0.00    -0.245 C  
HETATM    2  O   UNL     1     -11.156   8.537  69.616  1.00  0.00    -0.154 OA 
ENDROOT
BRANCH   2   3
HETATM    3  C   UNL     1     -10.969   9.844  69.252  1.00  0.00    -0.211 A  
HETATM    4  C   UNL     1     -11.935  10.756  69.677  1.00  0.00    -0.313 A  
HETATM    5  O   UNL     1     -13.005  10.334  70.417  1.00  0.00    -0.543 OA 
HETATM    6  C   UNL     1     -11.860  12.104  69.335  1.00  0.00    -0.370 A  
HETATM    7  C   UNL     1     -10.798  12.547  68.545  1.00  0.00    -0.271 A  
HETATM    8  H   UNL     1     -13.662  10.955  70.706  1.00  0.00     0.000 HD 
HETATM    9  C   UNL     1      -9.803  11.656  68.124  1.00  0.00    -0.191 A  
HETATM   10  C   UNL     1      -9.885  10.305  68.505  1.00  0.00    -0.174 A  
BRANCH   9  11
HETATM   11  C   UNL     1      -8.695  12.091  67.203  1.00  0.00    -0.183 C  
BRANCH  11  12
HETATM   12  N   UNL     1      -8.909  13.413  66.695  1.00  0.00    -0.434 N  
HETATM   13  C   UNL     1      -8.081  14.459  67.030  1.00  0.00    -0.065 C  
HETATM   14  H   UNL     1      -9.696  13.584  66.069  1.00  0.00     0.000 HD 
HETATM   15  O   UNL     1      -7.108  14.358  67.755  1.00  0.00    -0.143 OA 
BRANCH  13  16
HETATM   16  C   UNL     1      -8.562  15.768  66.465  1.00  0.00    -0.343 C  
BRANCH  16  17
HETATM   17  C   UNL     1     -10.077  15.857  66.352  1.00  0.00    -0.306 C  
BRANCH  17  18
HETATM   18  C   UNL     1     -10.590  17.286  66.118  1.00  0.00    -0.204 C  
BRANCH  18  19
HETATM   19  C   UNL     1     -10.654  18.185  67.360  1.00  0.00    -0.406 C  
BRANCH  19  20
HETATM   20  C   UNL     1     -10.342  19.635  67.100  1.00  0.00    -0.581 C  
HETATM   21  C   UNL     1      -9.128  20.210  67.157  1.00  0.00    -0.489 C  
HETATM   22  C   UNL     1      -7.810  19.498  67.341  1.00  0.00    -0.291 C  
HETATM   23  C   UNL     1      -7.408  19.425  68.813  1.00  0.00    -0.390 C  
HETATM   24  C   UNL     1      -6.725  20.190  66.520  1.00  0.00    -0.252 C  
ENDBRANCH  19  20
ENDBRANCH  18  19
ENDBRANCH  17  18
ENDBRANCH  16  17
ENDBRANCH  13  16
ENDBRANCH  11  12
ENDBRANCH   9  11
ENDBRANCH   2   3
TORSDOF 8
ENDMDL
MODEL      234
REMARK 921   NORMALIZED FREE ENERGY PREDICTED BY IDOCK:   -4.05 KCAL/MOL
REMARK 922        TOTAL FREE ENERGY PREDICTED BY IDOCK:   -7.17 KCAL/MOL
REMARK 923 INTER-LIGAND FREE ENERGY PREDICTED BY IDOCK:   -5.95 KCAL/MOL
REMARK 924 INTRA-LIGAND FREE ENERGY PREDICTED BY IDOCK:   -1.22 KCAL/MOL
REMARK 927      BINDING AFFINITY PREDICTED BY RF-SCORE:    0.00 PKD
ROOT
HETATM    1  C   UNL     1     -10.122  11.477  63.215  1.00  0.00    -0.406 C  
HETATM    2  O   UNL     1     -11.233  11.945  63.983  1.00  0.00    -0.343 OA 
ENDROOT
BRANCH   2   3
HETATM    3  C   UNL     1     -11.008  13.134  64.626  1.00  0.00    -0.356 A  
HETATM    4  C   UNL     1     -11.766  14.226  64.203  1.00  0.00    -0.256 A  
HETATM    5  O   UNL     1     -12.677  14.084  63.193  1.00  0.00    -0.928 OA 
HETATM    6  C   UNL     1     -11.595  15.489  64.764  1.00  0.00    -0.256 A  
HETATM    7  C   UNL     1     -10.640  15.662  65.767  1.00  0.00    -0.374 A  
HETATM    8  H   UNL     1     -13.194  14.828  62.905  1.00  0.00     0.000 HD 
HETATM    9  C   UNL     1      -9.882  14.578  66.225  1.00  0.00    -0.322 A  
HETATM   10  C   UNL     1     -10.091  13.307  65.663  1.00  0.00    -0.281 A  
BRANCH   9  11
HETATM   11  C   UNL     1      -8.789  14.756  67.245  1.00  0.00    -0.204 C  
BRANCH  11  12
HETATM   12  N   UNL     1      -7.990  13.574  67.384  1.00  0.00    -0.223 N  
HETATM   13  C   UNL     1      -6.652  13.640  67.694  1.00  0.00    -0.165 C  
HETATM   14  H   UNL     1      -8.425  12.661  67.250  1.00  0.00     0.000 HD 
HETATM   15  O   UNL     1      -6.043  14.676  67.889  1.00  0.00    -0.139 OA 
BRANCH  13  16
HETATM   16  C   UNL     1      -5.999  12.284  67.683  1.00  0.00    -0.119 C  
BRANCH  16  17
HETATM   17  C   UNL     1      -6.524  11.370  66.584  1.00  0.00    -0.117 C  
BRANCH  17  18
HETATM   18  C   UNL     1      -7.032  10.018  67.107  1.00  0.00    -0.084 C  
BRANCH  18  19
HETATM   19  C   UNL     1      -8.221   9.412  66.350  1.00  0.00    -0.111 C  
BRANCH  19  20
HETATM   20  C   UNL     1      -9.559   9.994  66.720  1.00  0.00    -0.228 C  
HETATM   21  C   UNL     1     -10.460   9.449  67.557  1.00  0.00    -0.343 C  
HETATM   22  C   UNL     1     -10.255   8.224  68.413  1.00  0.00    -0.242 C  
HETATM   23  C   UNL     1     -10.730   6.955  67.708  1.00  0.00    -0.321 C  
HETATM   24  C   UNL     1     -10.972   8.398  69.751  1.00  0.00    -0.130 C  
ENDBRANCH  19  20
ENDBRANCH  18  19
ENDBRANCH  17  18
ENDBRANCH  16  17
ENDBRANCH  13  16
ENDBRANCH  11  12
ENDBRANCH   9  11
ENDBRANCH   2   3
TORSDOF 8
ENDMDL
MODEL      235
REMARK 921   NORMALIZED FREE ENERGY PREDICTED BY IDOCK:   -4.05 KCAL/MOL
REMARK 922        TOTAL FREE ENERGY PREDICTED BY IDOCK:   -7.16 KCAL/MOL
REMARK 923 INTER-LIGAND FREE ENERGY PREDICTED BY IDOCK:   -6.36 KCAL/MOL
REMARK 924 INTRA-LIGAND FREE ENERGY PREDICTED BY IDOCK:   -0.81 KCAL/MOL
REMARK 927      BINDING AFFINITY PREDICTED BY RF-SCORE:    0.00 PKD
ROOT
HETATM    1  C   UNL     1      -5.479   9.594  70.499  1.00  0.00    -0.045 C  
HETATM    2  O   UNL     1      -6.692  10.308  70.740  1.00  0.00    -0.322 OA 
ENDROOT
BRANCH   2   3
HETATM    3  C   UNL     1      -7.154  11.008  69.656  1.00  0.00    -0.087 A  
HETATM    4  C   UNL     1      -6.824  12.362  69.600  1.00  0.00     0.149 A  
HETATM    5  O   UNL     1      -6.078  12.933  70.594  1.00  0.00    -0.398 OA 
HETATM    6  C   UNL     1      -7.269  13.175  68.561  1.00  0.00    -0.110 A  
HETATM    7  C   UNL     1      -8.068  12.621  67.560  1.00  0.00    -0.178 A  
HETATM    8  H   UNL     1      -5.852  13.855  70.555  1.00  0.00     0.000 HD 
HETATM    9  C   UNL     1      -8.395  11.259  67.581  1.00  0.00    -0.123 A  
HETATM   10  C   UNL     1      -7.911  10.452  68.625  1.00  0.00    -0.108 A  
BRANCH   9  11
HETATM   11  C   UNL     1      -9.322  10.656  66.560  1.00  0.00    -0.167 C  
BRANCH  11  12
HETATM   12  N   UNL     1     -10.565  11.364  66.481  1.00  0.00    -0.253 N  
HETATM   13  C   UNL     1     -10.818  12.270  65.478  1.00  0.00    -0.282 C  
HETATM   14  H   UNL     1     -11.281  11.191  67.187  1.00  0.00     0.000 HD 
HETATM   15  O   UNL     1     -10.039  12.536  64.582  1.00  0.00    -0.284 OA 
BRANCH  13  16
HETATM   16  C   UNL     1     -12.140  12.966  65.661  1.00  0.00    -0.511 C  
BRANCH  16  17
HETATM   17  C   UNL     1     -12.103  14.070  66.708  1.00  0.00    -0.480 C  
BRANCH  17  18
HETATM   18  C   UNL     1     -11.973  13.545  68.146  1.00  0.00    -0.376 C  
BRANCH  18  19
HETATM   19  C   UNL     1     -11.305  14.496  69.148  1.00  0.00    -0.305 C  
BRANCH  19  20
HETATM   20  C   UNL     1     -12.214  15.560  69.702  1.00  0.00    -0.297 C  
HETATM   21  C   UNL     1     -12.754  15.582  70.934  1.00  0.00    -0.525 C  
HETATM   22  C   UNL     1     -12.441  14.631  72.063  1.00  0.00    -0.407 C  
HETATM   23  C   UNL     1     -13.406  13.449  72.091  1.00  0.00    -0.613 C  
HETATM   24  C   UNL     1     -12.465  15.379  73.395  1.00  0.00    -0.633 C  
ENDBRANCH  19  20
ENDBRANCH  18  19
ENDBRANCH  17  18
ENDBRANCH  16  17
ENDBRANCH  13  16
ENDBRANCH  11  12
ENDBRANCH   9  11
ENDBRANCH   2   3
TORSDOF 8
ENDMDL
MODEL      236
REMARK 921   NORMALIZED FREE ENERGY PREDICTED BY IDOCK:   -4.05 KCAL/MOL
REMARK 922        TOTAL FREE ENERGY PREDICTED BY IDOCK:   -7.15 KCAL/MOL
REMARK 923 INTER-LIGAND FREE ENERGY PREDICTED BY IDOCK:   -6.52 KCAL/MOL
REMARK 924 INTRA-LIGAND FREE ENERGY PREDICTED BY IDOCK:   -0.63 KCAL/MOL
REMARK 927      BINDING AFFINITY PREDICTED BY RF-SCORE:    0.00 PKD
ROOT
HETATM    1  C   UNL     1      -7.086   9.514  65.193  1.00  0.00    -0.104 C  
HETATM    2  O   UNL     1      -8.404   9.063  64.874  1.00  0.00    -0.150 OA 
ENDROOT
BRANCH   2   3
HETATM    3  C   UNL     1      -9.339  10.063  64.817  1.00  0.00    -0.271 A  
HETATM    4  C   UNL     1      -9.770  10.443  63.546  1.00  0.00    -0.275 A  
HETATM    5  O   UNL     1      -9.264   9.831  62.433  1.00  0.00    -0.287 OA 
HETATM    6  C   UNL     1     -10.693  11.471  63.370  1.00  0.00    -0.444 A  
HETATM    7  C   UNL     1     -11.190  12.136  64.492  1.00  0.00    -0.385 A  
HETATM    8  H   UNL     1      -9.558  10.090  61.568  1.00  0.00     0.000 HD 
HETATM    9  C   UNL     1     -10.790  11.759  65.780  1.00  0.00    -0.341 A  
HETATM   10  C   UNL     1      -9.879  10.700  65.934  1.00  0.00    -0.296 A  
BRANCH   9  11
HETATM   11  C   UNL     1     -11.247  12.515  66.999  1.00  0.00    -0.302 C  
BRANCH  11  12
HETATM   12  N   UNL     1     -10.542  13.753  67.157  1.00  0.00    -0.275 N  
HETATM   13  C   UNL     1     -11.088  14.950  66.756  1.00  0.00    -0.335 C  
HETATM   14  H   UNL     1      -9.613  13.746  67.577  1.00  0.00     0.000 HD 
HETATM   15  O   UNL     1     -12.193  15.067  66.259  1.00  0.00     0.004 OA 
BRANCH  13  16
HETATM   16  C   UNL     1     -10.127  16.096  66.921  1.00  0.00    -0.273 C  
BRANCH  16  17
HETATM   17  C   UNL     1     -10.556  17.096  67.985  1.00  0.00    -0.374 C  
BRANCH  17  18
HETATM   18  C   UNL     1     -10.572  18.549  67.487  1.00  0.00    -0.461 C  
BRANCH  18  19
HETATM   19  C   UNL     1      -9.250  19.316  67.618  1.00  0.00    -0.362 C  
BRANCH  19  20
HETATM   20  C   UNL     1      -8.359  18.840  68.734  1.00  0.00    -0.322 C  
HETATM   21  C   UNL     1      -7.093  19.234  68.965  1.00  0.00    -0.391 C  
HETATM   22  C   UNL     1      -6.359  20.342  68.251  1.00  0.00    -0.333 C  
HETATM   23  C   UNL     1      -5.559  19.814  67.061  1.00  0.00    -0.173 C  
HETATM   24  C   UNL     1      -5.447  21.078  69.230  1.00  0.00    -0.374 C  
ENDBRANCH  19  20
ENDBRANCH  18  19
ENDBRANCH  17  18
ENDBRANCH  16  17
ENDBRANCH  13  16
ENDBRANCH  11  12
ENDBRANCH   9  11
ENDBRANCH   2   3
TORSDOF 8
ENDMDL
MODEL      237
REMARK 921   NORMALIZED FREE ENERGY PREDICTED BY IDOCK:   -4.04 KCAL/MOL
REMARK 922        TOTAL FREE ENERGY PREDICTED BY IDOCK:   -7.15 KCAL/MOL
REMARK 923 INTER-LIGAND FREE ENERGY PREDICTED BY IDOCK:   -6.37 KCAL/MOL
REMARK 924 INTRA-LIGAND FREE ENERGY PREDICTED BY IDOCK:   -0.77 KCAL/MOL
REMARK 927      BINDING AFFINITY PREDICTED BY RF-SCORE:    0.00 PKD
ROOT
HETATM    1  C   UNL     1     -10.337  15.576  69.879  1.00  0.00    -0.312 C  
HETATM    2  O   UNL     1     -11.704  15.662  70.285  1.00  0.00    -0.302 OA 
ENDROOT
BRANCH   2   3
HETATM    3  C   UNL     1     -12.208  14.499  70.806  1.00  0.00    -0.333 A  
HETATM    4  C   UNL     1     -12.957  14.611  71.977  1.00  0.00    -0.334 A  
HETATM    5  O   UNL     1     -13.158  15.835  72.553  1.00  0.00    -0.429 OA 
HETATM    6  C   UNL     1     -13.487  13.490  72.610  1.00  0.00    -0.572 A  
HETATM    7  C   UNL     1     -13.257  12.228  72.060  1.00  0.00    -0.508 A  
HETATM    8  H   UNL     1     -13.669  15.912  73.350  1.00  0.00     0.000 HD 
HETATM    9  C   UNL     1     -12.527  12.090  70.873  1.00  0.00    -0.384 A  
HETATM   10  C   UNL     1     -12.025  13.238  70.237  1.00  0.00    -0.372 A  
BRANCH   9  11
HETATM   11  C   UNL     1     -12.193  10.735  70.306  1.00  0.00    -0.348 C  
BRANCH  11  12
HETATM   12  N   UNL     1     -11.198  10.060  71.084  1.00  0.00    -0.329 N  
HETATM   13  C   UNL     1     -11.499   8.946  71.832  1.00  0.00    -0.372 C  
HETATM   14  H   UNL     1     -10.241  10.414  71.083  1.00  0.00     0.000 HD 
HETATM   15  O   UNL     1     -12.603   8.436  71.890  1.00  0.00    -0.316 OA 
BRANCH  13  16
HETATM   16  C   UNL     1     -10.324   8.474  72.646  1.00  0.00    -0.235 C  
BRANCH  16  17
HETATM   17  C   UNL     1      -9.955   7.019  72.388  1.00  0.00    -0.184 C  
BRANCH  17  18
HETATM   18  C   UNL     1      -8.627   6.850  71.636  1.00  0.00    -0.117 C  
BRANCH  18  19
HETATM   19  C   UNL     1      -8.704   6.089  70.306  1.00  0.00    -0.143 C  
BRANCH  19  20
HETATM   20  C   UNL     1      -9.895   5.177  70.175  1.00  0.00    -0.300 C  
HETATM   21  C   UNL     1      -9.996   3.927  70.661  1.00  0.00    -0.094 C  
HETATM   22  C   UNL     1      -9.005   3.237  71.565  1.00  0.00    -0.153 C  
HETATM   23  C   UNL     1      -7.987   2.422  70.770  1.00  0.00    -0.052 C  
HETATM   24  C   UNL     1      -9.742   2.351  72.566  1.00  0.00    -0.186 C  
ENDBRANCH  19  20
ENDBRANCH  18  19
ENDBRANCH  17  18
ENDBRANCH  16  17
ENDBRANCH  13  16
ENDBRANCH  11  12
ENDBRANCH   9  11
ENDBRANCH   2   3
TORSDOF 8
ENDMDL
MODEL      238
REMARK 921   NORMALIZED FREE ENERGY PREDICTED BY IDOCK:   -4.03 KCAL/MOL
REMARK 922        TOTAL FREE ENERGY PREDICTED BY IDOCK:   -7.13 KCAL/MOL
REMARK 923 INTER-LIGAND FREE ENERGY PREDICTED BY IDOCK:   -6.44 KCAL/MOL
REMARK 924 INTRA-LIGAND FREE ENERGY PREDICTED BY IDOCK:   -0.69 KCAL/MOL
REMARK 927      BINDING AFFINITY PREDICTED BY RF-SCORE:    0.00 PKD
ROOT
HETATM    1  C   UNL     1     -10.297   5.744  67.606  1.00  0.00    -0.217 C  
HETATM    2  O   UNL     1      -9.284   5.263  68.490  1.00  0.00    -0.108 OA 
ENDROOT
BRANCH   2   3
HETATM    3  C   UNL     1      -9.649   5.258  69.810  1.00  0.00    -0.167 A  
HETATM    4  C   UNL     1      -8.816   4.563  70.687  1.00  0.00    -0.100 A  
HETATM    5  O   UNL     1      -7.699   3.926  70.220  1.00  0.00    -0.048 OA 
HETATM    6  C   UNL     1      -9.110   4.466  72.045  1.00  0.00    -0.159 A  
HETATM    7  C   UNL     1     -10.267   5.073  72.534  1.00  0.00    -0.247 A  
HETATM    8  H   UNL     1      -7.132   3.453  70.817  1.00  0.00     0.000 HD 
HETATM    9  C   UNL     1     -11.109   5.796  71.679  1.00  0.00    -0.290 A  
HETATM   10  C   UNL     1     -10.777   5.904  70.317  1.00  0.00    -0.383 A  
BRANCH   9  11
HETATM   11  C   UNL     1     -12.405   6.389  72.165  1.00  0.00    -0.182 C  
BRANCH  11  12
HETATM   12  N   UNL     1     -12.305   7.804  72.363  1.00  0.00    -0.527 N  
HETATM   13  C   UNL     1     -13.308   8.660  71.975  1.00  0.00    -0.392 C  
HETATM   14  H   UNL     1     -11.468   8.186  72.804  1.00  0.00     0.000 HD 
HETATM   15  O   UNL     1     -14.351   8.305  71.456  1.00  0.00    -0.433 OA 
BRANCH  13  16
HETATM   16  C   UNL     1     -12.937  10.104  72.186  1.00  0.00    -0.436 C  
BRANCH  16  17
HETATM   17  C   UNL     1     -13.121  10.963  70.942  1.00  0.00    -0.237 C  
BRANCH  17  18
HETATM   18  C   UNL     1     -11.796  11.386  70.291  1.00  0.00    -0.438 C  
BRANCH  18  19
HETATM   19  C   UNL     1     -11.894  12.496  69.236  1.00  0.00    -0.360 C  
BRANCH  19  20
HETATM   20  C   UNL     1     -11.188  13.773  69.605  1.00  0.00    -0.175 C  
HETATM   21  C   UNL     1     -11.520  14.603  70.610  1.00  0.00    -0.256 C  
HETATM   22  C   UNL     1     -12.567  14.352  71.667  1.00  0.00    -0.429 C  
HETATM   23  C   UNL     1     -13.923  14.932  71.268  1.00  0.00    -0.489 C  
HETATM   24  C   UNL     1     -12.107  14.929  73.004  1.00  0.00    -0.369 C  
ENDBRANCH  19  20
ENDBRANCH  18  19
ENDBRANCH  17  18
ENDBRANCH  16  17
ENDBRANCH  13  16
ENDBRANCH  11  12
ENDBRANCH   9  11
ENDBRANCH   2   3
TORSDOF 8
ENDMDL
MODEL      239
REMARK 921   NORMALIZED FREE ENERGY PREDICTED BY IDOCK:   -4.02 KCAL/MOL
REMARK 922        TOTAL FREE ENERGY PREDICTED BY IDOCK:   -7.12 KCAL/MOL
REMARK 923 INTER-LIGAND FREE ENERGY PREDICTED BY IDOCK:   -6.32 KCAL/MOL
REMARK 924 INTRA-LIGAND FREE ENERGY PREDICTED BY IDOCK:   -0.80 KCAL/MOL
REMARK 927      BINDING AFFINITY PREDICTED BY RF-SCORE:    0.00 PKD
ROOT
HETATM    1  C   UNL     1      -9.083   2.622  65.320  1.00  0.00    -0.138 C  
HETATM    2  O   UNL     1      -8.936   2.463  66.733  1.00  0.00    -0.129 OA 
ENDROOT
BRANCH   2   3
HETATM    3  C   UNL     1      -9.405   3.520  67.467  1.00  0.00    -0.206 A  
HETATM    4  C   UNL     1      -9.322   3.403  68.855  1.00  0.00    -0.168 A  
HETATM    5  O   UNL     1      -8.796   2.275  69.422  1.00  0.00    -0.073 OA 
HETATM    6  C   UNL     1      -9.800   4.403  69.697  1.00  0.00    -0.272 A  
HETATM    7  C   UNL     1     -10.379   5.543  69.138  1.00  0.00    -0.318 A  
HETATM    8  H   UNL     1      -8.739   2.196  70.367  1.00  0.00     0.000 HD 
HETATM    9  C   UNL     1     -10.454   5.695  67.747  1.00  0.00    -0.275 A  
HETATM   10  C   UNL     1      -9.940   4.685  66.917  1.00  0.00    -0.239 A  
BRANCH   9  11
HETATM   11  C   UNL     1     -11.148   6.875  67.120  1.00  0.00    -0.292 C  
BRANCH  11  12
HETATM   12  N   UNL     1     -10.252   7.665  66.330  1.00  0.00    -0.485 N  
HETATM   13  C   UNL     1     -10.141   9.025  66.507  1.00  0.00    -0.283 C  
HETATM   14  H   UNL     1      -9.682   7.209  65.619  1.00  0.00     0.000 HD 
HETATM   15  O   UNL     1     -10.764   9.661  67.337  1.00  0.00    -0.275 OA 
BRANCH  13  16
HETATM   16  C   UNL     1      -9.222   9.656  65.497  1.00  0.00    -0.291 C  
BRANCH  16  17
HETATM   17  C   UNL     1      -9.471  11.145  65.299  1.00  0.00    -0.257 C  
BRANCH  17  18
HETATM   18  C   UNL     1     -10.649  11.448  64.360  1.00  0.00    -0.403 C  
BRANCH  18  19
HETATM   19  C   UNL     1     -11.237  12.861  64.459  1.00  0.00    -0.372 C  
BRANCH  19  20
HETATM   20  C   UNL     1     -12.348  13.007  65.465  1.00  0.00    -0.527 C  
HETATM   21  C   UNL     1     -12.245  13.554  66.690  1.00  0.00    -0.411 C  
HETATM   22  C   UNL     1     -11.041  14.269  67.250  1.00  0.00    -0.315 C  
HETATM   23  C   UNL     1     -10.132  13.321  68.029  1.00  0.00    -0.235 C  
HETATM   24  C   UNL     1     -11.490  15.432  68.132  1.00  0.00    -0.352 C  
ENDBRANCH  19  20
ENDBRANCH  18  19
ENDBRANCH  17  18
ENDBRANCH  16  17
ENDBRANCH  13  16
ENDBRANCH  11  12
ENDBRANCH   9  11
ENDBRANCH   2   3
TORSDOF 8
ENDMDL
MODEL      240
REMARK 921   NORMALIZED FREE ENERGY PREDICTED BY IDOCK:   -4.01 KCAL/MOL
REMARK 922        TOTAL FREE ENERGY PREDICTED BY IDOCK:   -7.10 KCAL/MOL
REMARK 923 INTER-LIGAND FREE ENERGY PREDICTED BY IDOCK:   -6.07 KCAL/MOL
REMARK 924 INTRA-LIGAND FREE ENERGY PREDICTED BY IDOCK:   -1.03 KCAL/MOL
REMARK 927      BINDING AFFINITY PREDICTED BY RF-SCORE:    0.00 PKD
ROOT
HETATM    1  C   UNL     1     -10.464  19.643  66.594  1.00  0.00    -0.497 C  
HETATM    2  O   UNL     1      -9.902  18.602  65.793  1.00  0.00    -0.475 OA 
ENDROOT
BRANCH   2   3
HETATM    3  C   UNL     1      -9.782  17.401  66.440  1.00  0.00    -0.290 A  
HETATM    4  C   UNL     1      -8.560  16.740  66.310  1.00  0.00    -0.305 A  
HETATM    5  O   UNL     1      -7.553  17.290  65.566  1.00  0.00    -0.213 OA 
HETATM    6  C   UNL     1      -8.341  15.497  66.899  1.00  0.00    -0.290 A  
HETATM    7  C   UNL     1      -9.370  14.900  67.628  1.00  0.00    -0.191 A  
HETATM    8  H   UNL     1      -6.721  16.841  65.478  1.00  0.00     0.000 HD 
HETATM    9  C   UNL     1     -10.599  15.552  67.792  1.00  0.00    -0.281 A  
HETATM   10  C   UNL     1     -10.788  16.818  67.212  1.00  0.00    -0.137 A  
BRANCH   9  11
HETATM   11  C   UNL     1     -11.751  14.893  68.501  1.00  0.00    -0.310 C  
BRANCH  11  12
HETATM   12  N   UNL     1     -11.689  13.464  68.411  1.00  0.00    -0.334 N  
HETATM   13  C   UNL     1     -11.841  12.664  69.518  1.00  0.00    -0.312 C  
HETATM   14  H   UNL     1     -11.529  13.030  67.502  1.00  0.00     0.000 HD 
HETATM   15  O   UNL     1     -12.051  13.081  70.642  1.00  0.00    -0.348 OA 
BRANCH  13  16
HETATM   16  C   UNL     1     -11.631  11.208  69.200  1.00  0.00    -0.393 C  
BRANCH  16  17
HETATM   17  C   UNL     1     -10.165  10.797  69.182  1.00  0.00    -0.229 C  
BRANCH  17  18
HETATM   18  C   UNL     1      -9.653  10.421  67.784  1.00  0.00    -0.169 C  
BRANCH  18  19
HETATM   19  C   UNL     1     -10.633  10.655  66.627  1.00  0.00    -0.276 C  
BRANCH  19  20
HETATM   20  C   UNL     1     -10.037  11.353  65.434  1.00  0.00    -0.308 C  
HETATM   21  C   UNL     1      -9.181  10.818  64.546  1.00  0.00    -0.250 C  
HETATM   22  C   UNL     1      -8.760   9.371  64.470  1.00  0.00    -0.233 C  
HETATM   23  C   UNL     1      -7.481   9.111  65.263  1.00  0.00    -0.097 C  
HETATM   24  C   UNL     1      -8.584   8.955  63.011  1.00  0.00    -0.136 C  
ENDBRANCH  19  20
ENDBRANCH  18  19
ENDBRANCH  17  18
ENDBRANCH  16  17
ENDBRANCH  13  16
ENDBRANCH  11  12
ENDBRANCH   9  11
ENDBRANCH   2   3
TORSDOF 8
ENDMDL
MODEL      241
REMARK 921   NORMALIZED FREE ENERGY PREDICTED BY IDOCK:   -4.00 KCAL/MOL
REMARK 922        TOTAL FREE ENERGY PREDICTED BY IDOCK:   -7.09 KCAL/MOL
REMARK 923 INTER-LIGAND FREE ENERGY PREDICTED BY IDOCK:   -6.54 KCAL/MOL
REMARK 924 INTRA-LIGAND FREE ENERGY PREDICTED BY IDOCK:   -0.55 KCAL/MOL
REMARK 927      BINDING AFFINITY PREDICTED BY RF-SCORE:    0.00 PKD
ROOT
HETATM    1  C   UNL     1     -10.519  19.524  68.119  1.00  0.00    -0.377 C  
HETATM    2  O   UNL     1      -9.735  18.428  68.594  1.00  0.00    -0.336 OA 
ENDROOT
BRANCH   2   3
HETATM    3  C   UNL     1      -9.811  17.306  67.812  1.00  0.00    -0.281 A  
HETATM    4  C   UNL     1      -8.866  17.189  66.793  1.00  0.00    -0.246 A  
HETATM    5  O   UNL     1      -7.926  18.164  66.607  1.00  0.00    -0.231 OA 
HETATM    6  C   UNL     1      -8.873  16.105  65.918  1.00  0.00    -0.196 A  
HETATM    7  C   UNL     1      -9.850  15.120  66.065  1.00  0.00    -0.349 A  
HETATM    8  H   UNL     1      -7.282  18.084  65.914  1.00  0.00     0.000 HD 
HETATM    9  C   UNL     1     -10.797  15.202  67.094  1.00  0.00    -0.320 A  
HETATM   10  C   UNL     1     -10.754  16.291  67.981  1.00  0.00    -0.331 A  
BRANCH   9  11
HETATM   11  C   UNL     1     -11.911  14.199  67.221  1.00  0.00    -0.414 C  
BRANCH  11  12
HETATM   12  N   UNL     1     -11.858  13.494  68.467  1.00  0.00    -0.348 N  
HETATM   13  C   UNL     1     -11.688  12.131  68.520  1.00  0.00    -0.330 C  
HETATM   14  H   UNL     1     -11.948  14.017  69.338  1.00  0.00     0.000 HD 
HETATM   15  O   UNL     1     -11.556  11.418  67.541  1.00  0.00    -0.497 OA 
BRANCH  13  16
HETATM   16  C   UNL     1     -11.770  11.601  69.926  1.00  0.00    -0.414 C  
BRANCH  16  17
HETATM   17  C   UNL     1     -11.249  10.177  70.067  1.00  0.00    -0.361 C  
BRANCH  17  18
HETATM   18  C   UNL     1     -11.597   9.530  71.416  1.00  0.00    -0.466 C  
BRANCH  18  19
HETATM   19  C   UNL     1     -11.387   8.013  71.504  1.00  0.00    -0.299 C  
BRANCH  19  20
HETATM   20  C   UNL     1     -10.763   7.396  70.281  1.00  0.00    -0.250 C  
HETATM   21  C   UNL     1      -9.586   6.747  70.230  1.00  0.00    -0.170 C  
HETATM   22  C   UNL     1      -8.722   6.370  71.408  1.00  0.00    -0.131 C  
HETATM   23  C   UNL     1      -7.671   7.438  71.703  1.00  0.00    -0.086 C  
HETATM   24  C   UNL     1      -8.060   5.017  71.156  1.00  0.00    -0.109 C  
ENDBRANCH  19  20
ENDBRANCH  18  19
ENDBRANCH  17  18
ENDBRANCH  16  17
ENDBRANCH  13  16
ENDBRANCH  11  12
ENDBRANCH   9  11
ENDBRANCH   2   3
TORSDOF 8
ENDMDL
MODEL      242
REMARK 921   NORMALIZED FREE ENERGY PREDICTED BY IDOCK:   -4.00 KCAL/MOL
REMARK 922        TOTAL FREE ENERGY PREDICTED BY IDOCK:   -7.09 KCAL/MOL
REMARK 923 INTER-LIGAND FREE ENERGY PREDICTED BY IDOCK:   -5.70 KCAL/MOL
REMARK 924 INTRA-LIGAND FREE ENERGY PREDICTED BY IDOCK:   -1.39 KCAL/MOL
REMARK 927      BINDING AFFINITY PREDICTED BY RF-SCORE:    0.00 PKD
ROOT
HETATM    1  C   UNL     1     -10.580  15.741  65.694  1.00  0.00    -0.377 C  
HETATM    2  O   UNL     1     -11.752  14.939  65.857  1.00  0.00    -0.296 OA 
ENDROOT
BRANCH   2   3
HETATM    3  C   UNL     1     -11.498  13.648  66.237  1.00  0.00    -0.333 A  
HETATM    4  C   UNL     1     -11.817  13.310  67.553  1.00  0.00    -0.358 A  
HETATM    5  O   UNL     1     -12.352  14.244  68.396  1.00  0.00    -0.584 OA 
HETATM    6  C   UNL     1     -11.569  12.034  68.054  1.00  0.00    -0.407 A  
HETATM    7  C   UNL     1     -10.984  11.079  67.222  1.00  0.00    -0.356 A  
HETATM    8  H   UNL     1     -12.570  14.014  69.291  1.00  0.00     0.000 HD 
HETATM    9  C   UNL     1     -10.675  11.386  65.891  1.00  0.00    -0.311 A  
HETATM   10  C   UNL     1     -10.959  12.672  65.399  1.00  0.00    -0.320 A  
BRANCH   9  11
HETATM   11  C   UNL     1      -9.967  10.402  64.999  1.00  0.00    -0.330 C  
BRANCH  11  12
HETATM   12  N   UNL     1      -9.260   9.409  65.753  1.00  0.00    -0.201 N  
HETATM   13  C   UNL     1      -7.895   9.271  65.663  1.00  0.00    -0.099 C  
HETATM   14  H   UNL     1      -9.782   8.789  66.371  1.00  0.00     0.000 HD 
HETATM   15  O   UNL     1      -7.179   9.969  64.968  1.00  0.00    -0.129 OA 
BRANCH  13  16
HETATM   16  C   UNL     1      -7.388   8.099  66.459  1.00  0.00    -0.081 C  
BRANCH  16  17
HETATM   17  C   UNL     1      -6.619   8.503  67.709  1.00  0.00    -0.062 C  
BRANCH  17  18
HETATM   18  C   UNL     1      -6.935   7.628  68.931  1.00  0.00    -0.070 C  
BRANCH  18  19
HETATM   19  C   UNL     1      -7.144   8.376  70.254  1.00  0.00    -0.040 C  
BRANCH  19  20
HETATM   20  C   UNL     1      -8.037   9.584  70.155  1.00  0.00    -0.186 C  
HETATM   21  C   UNL     1      -9.373   9.600  70.310  1.00  0.00    -0.292 C  
HETATM   22  C   UNL     1     -10.233   8.447  70.765  1.00  0.00    -0.227 C  
HETATM   23  C   UNL     1     -10.777   7.646  69.584  1.00  0.00    -0.230 C  
HETATM   24  C   UNL     1     -11.376   8.962  71.638  1.00  0.00    -0.407 C  
ENDBRANCH  19  20
ENDBRANCH  18  19
ENDBRANCH  17  18
ENDBRANCH  16  17
ENDBRANCH  13  16
ENDBRANCH  11  12
ENDBRANCH   9  11
ENDBRANCH   2   3
TORSDOF 8
ENDMDL
MODEL      243
REMARK 921   NORMALIZED FREE ENERGY PREDICTED BY IDOCK:   -4.00 KCAL/MOL
REMARK 922        TOTAL FREE ENERGY PREDICTED BY IDOCK:   -7.09 KCAL/MOL
REMARK 923 INTER-LIGAND FREE ENERGY PREDICTED BY IDOCK:   -6.99 KCAL/MOL
REMARK 924 INTRA-LIGAND FREE ENERGY PREDICTED BY IDOCK:   -0.10 KCAL/MOL
REMARK 927      BINDING AFFINITY PREDICTED BY RF-SCORE:    0.00 PKD
ROOT
HETATM    1  C   UNL     1      -5.583  15.679  69.937  1.00  0.00    -0.132 C  
HETATM    2  O   UNL     1      -5.219  16.896  70.592  1.00  0.00    -0.212 OA 
ENDROOT
BRANCH   2   3
HETATM    3  C   UNL     1      -5.632  18.028  69.939  1.00  0.00    -0.240 A  
HETATM    4  C   UNL     1      -5.605  19.216  70.670  1.00  0.00    -0.210 A  
HETATM    5  O   UNL     1      -5.185  19.216  71.972  1.00  0.00    -0.667 OA 
HETATM    6  C   UNL     1      -6.035  20.419  70.116  1.00  0.00    -0.356 A  
HETATM    7  C   UNL     1      -6.508  20.431  68.803  1.00  0.00    -0.309 A  
HETATM    8  H   UNL     1      -5.166  20.025  72.469  1.00  0.00     0.000 HD 
HETATM    9  C   UNL     1      -6.524  19.257  68.040  1.00  0.00    -0.249 A  
HETATM   10  C   UNL     1      -6.059  18.059  68.612  1.00  0.00    -0.195 A  
BRANCH   9  11
HETATM   11  C   UNL     1      -7.106  19.227  66.652  1.00  0.00    -0.208 C  
BRANCH  11  12
HETATM   12  N   UNL     1      -7.872  18.039  66.418  1.00  0.00    -0.263 N  
HETATM   13  C   UNL     1      -9.245  18.067  66.344  1.00  0.00    -0.242 C  
HETATM   14  H   UNL     1      -7.387  17.149  66.304  1.00  0.00     0.000 HD 
HETATM   15  O   UNL     1      -9.916  19.077  66.451  1.00  0.00    -0.350 OA 
BRANCH  13  16
HETATM   16  C   UNL     1      -9.835  16.690  66.200  1.00  0.00    -0.340 C  
BRANCH  16  17
HETATM   17  C   UNL     1     -10.386  16.130  67.504  1.00  0.00    -0.286 C  
BRANCH  17  18
HETATM   18  C   UNL     1     -11.398  14.992  67.300  1.00  0.00    -0.337 C  
BRANCH  18  19
HETATM   19  C   UNL     1     -11.086  13.680  68.032  1.00  0.00    -0.285 C  
BRANCH  19  20
HETATM   20  C   UNL     1     -11.640  12.447  67.368  1.00  0.00    -0.433 C  
HETATM   21  C   UNL     1     -11.700  12.217  66.044  1.00  0.00    -0.388 C  
HETATM   22  C   UNL     1     -11.092  13.071  64.960  1.00  0.00    -0.319 C  
HETATM   23  C   UNL     1     -12.085  14.100  64.426  1.00  0.00    -0.486 C  
HETATM   24  C   UNL     1     -10.573  12.185  63.829  1.00  0.00    -0.482 C  
ENDBRANCH  19  20
ENDBRANCH  18  19
ENDBRANCH  17  18
ENDBRANCH  16  17
ENDBRANCH  13  16
ENDBRANCH  11  12
ENDBRANCH   9  11
ENDBRANCH   2   3
TORSDOF 8
ENDMDL
MODEL      244
REMARK 921   NORMALIZED FREE ENERGY PREDICTED BY IDOCK:   -3.99 KCAL/MOL
REMARK 922        TOTAL FREE ENERGY PREDICTED BY IDOCK:   -7.08 KCAL/MOL
REMARK 923 INTER-LIGAND FREE ENERGY PREDICTED BY IDOCK:   -6.42 KCAL/MOL
REMARK 924 INTRA-LIGAND FREE ENERGY PREDICTED BY IDOCK:   -0.65 KCAL/MOL
REMARK 927      BINDING AFFINITY PREDICTED BY RF-SCORE:    0.00 PKD
ROOT
HETATM    1  C   UNL     1     -14.408  14.855  71.909  1.00  0.00    -0.576 C  
HETATM    2  O   UNL     1     -13.214  14.137  72.227  1.00  0.00    -0.376 OA 
ENDROOT
BRANCH   2   3
HETATM    3  C   UNL     1     -12.669  13.460  71.168  1.00  0.00    -0.328 A  
HETATM    4  C   UNL     1     -12.590  12.073  71.287  1.00  0.00    -0.252 A  
HETATM    5  O   UNL     1     -13.041  11.449  72.418  1.00  0.00    -0.434 OA 
HETATM    6  C   UNL     1     -12.023  11.290  70.285  1.00  0.00    -0.466 A  
HETATM    7  C   UNL     1     -11.519  11.911  69.141  1.00  0.00    -0.356 A  
HETATM    8  H   UNL     1     -12.988  10.505  72.498  1.00  0.00     0.000 HD 
HETATM    9  C   UNL     1     -11.606  13.300  68.988  1.00  0.00    -0.359 A  
HETATM   10  C   UNL     1     -12.207  14.067  70.000  1.00  0.00    -0.414 A  
BRANCH   9  11
HETATM   11  C   UNL     1     -10.994  14.002  67.804  1.00  0.00    -0.258 C  
BRANCH  11  12
HETATM   12  N   UNL     1     -10.891  13.138  66.665  1.00  0.00    -0.278 N  
HETATM   13  C   UNL     1     -11.817  13.168  65.650  1.00  0.00    -0.387 C  
HETATM   14  H   UNL     1     -10.109  12.485  66.606  1.00  0.00     0.000 HD 
HETATM   15  O   UNL     1     -12.775  13.919  65.617  1.00  0.00    -0.521 OA 
BRANCH  13  16
HETATM   16  C   UNL     1     -11.563  12.103  64.617  1.00  0.00    -0.392 C  
BRANCH  16  17
HETATM   17  C   UNL     1     -10.271  12.312  63.839  1.00  0.00    -0.421 C  
BRANCH  17  18
HETATM   18  C   UNL     1      -9.574  10.999  63.449  1.00  0.00    -0.361 C  
BRANCH  18  19
HETATM   19  C   UNL     1      -8.084  10.903  63.802  1.00  0.00     0.264 C  
BRANCH  19  20
HETATM   20  C   UNL     1      -7.230  10.262  62.740  1.00  0.00    -0.143 C  
HETATM   21  C   UNL     1      -6.987   8.947  62.602  1.00  0.00    -0.093 C  
HETATM   22  C   UNL     1      -7.636   7.831  63.384  1.00  0.00    -0.123 C  
HETATM   23  C   UNL     1      -6.816   7.452  64.615  1.00  0.00    -0.047 C  
HETATM   24  C   UNL     1      -7.847   6.617  62.482  1.00  0.00    -0.104 C  
ENDBRANCH  19  20
ENDBRANCH  18  19
ENDBRANCH  17  18
ENDBRANCH  16  17
ENDBRANCH  13  16
ENDBRANCH  11  12
ENDBRANCH   9  11
ENDBRANCH   2   3
TORSDOF 8
ENDMDL
MODEL      245
REMARK 921   NORMALIZED FREE ENERGY PREDICTED BY IDOCK:   -3.99 KCAL/MOL
REMARK 922        TOTAL FREE ENERGY PREDICTED BY IDOCK:   -7.07 KCAL/MOL
REMARK 923 INTER-LIGAND FREE ENERGY PREDICTED BY IDOCK:   -5.76 KCAL/MOL
REMARK 924 INTRA-LIGAND FREE ENERGY PREDICTED BY IDOCK:   -1.31 KCAL/MOL
REMARK 927      BINDING AFFINITY PREDICTED BY RF-SCORE:    0.00 PKD
ROOT
HETATM    1  C   UNL     1     -12.265  15.219  64.663  1.00  0.00    -0.138 C  
HETATM    2  O   UNL     1     -10.875  15.544  64.604  1.00  0.00    -0.397 OA 
ENDROOT
BRANCH   2   3
HETATM    3  C   UNL     1     -10.343  15.945  65.801  1.00  0.00    -0.376 A  
HETATM    4  C   UNL     1     -10.468  17.297  66.120  1.00  0.00    -0.278 A  
HETATM    5  O   UNL     1     -11.095  18.155  65.258  1.00  0.00    -0.428 OA 
HETATM    6  C   UNL     1      -9.934  17.818  67.296  1.00  0.00    -0.324 A  
HETATM    7  C   UNL     1      -9.254  16.967  68.168  1.00  0.00    -0.234 A  
HETATM    8  H   UNL     1     -11.181  19.075  65.476  1.00  0.00     0.000 HD 
HETATM    9  C   UNL     1      -9.134  15.601  67.882  1.00  0.00    -0.185 A  
HETATM   10  C   UNL     1      -9.705  15.093  66.703  1.00  0.00    -0.274 A  
BRANCH   9  11
HETATM   11  C   UNL     1      -8.334  14.679  68.764  1.00  0.00    -0.163 C  
BRANCH  11  12
HETATM   12  N   UNL     1      -8.599  13.301  68.477  1.00  0.00    -0.328 N  
HETATM   13  C   UNL     1      -7.694  12.312  68.783  1.00  0.00    -0.016 C  
HETATM   14  H   UNL     1      -9.482  13.046  68.035  1.00  0.00     0.000 HD 
HETATM   15  O   UNL     1      -6.621  12.509  69.324  1.00  0.00    -0.102 OA 
BRANCH  13  16
HETATM   16  C   UNL     1      -8.141  10.961  68.294  1.00  0.00    -0.124 C  
BRANCH  16  17
HETATM   17  C   UNL     1      -8.798  10.114  69.375  1.00  0.00    -0.197 C  
BRANCH  17  18
HETATM   18  C   UNL     1     -10.327  10.260  69.420  1.00  0.00    -0.256 C  
BRANCH  18  19
HETATM   19  C   UNL     1     -11.039  10.256  68.061  1.00  0.00    -0.336 C  
BRANCH  19  20
HETATM   20  C   UNL     1     -11.643  11.578  67.668  1.00  0.00    -0.320 C  
HETATM   21  C   UNL     1     -11.626  12.126  66.439  1.00  0.00    -0.429 C  
HETATM   22  C   UNL     1     -11.138  11.466  65.173  1.00  0.00    -0.203 C  
HETATM   23  C   UNL     1      -9.668  11.781  64.902  1.00  0.00    -0.199 C  
HETATM   24  C   UNL     1     -12.007  11.895  63.994  1.00  0.00    -0.455 C  
ENDBRANCH  19  20
ENDBRANCH  18  19
ENDBRANCH  17  18
ENDBRANCH  16  17
ENDBRANCH  13  16
ENDBRANCH  11  12
ENDBRANCH   9  11
ENDBRANCH   2   3
TORSDOF 8
ENDMDL
MODEL      246
REMARK 921   NORMALIZED FREE ENERGY PREDICTED BY IDOCK:   -3.99 KCAL/MOL
REMARK 922        TOTAL FREE ENERGY PREDICTED BY IDOCK:   -7.07 KCAL/MOL
REMARK 923 INTER-LIGAND FREE ENERGY PREDICTED BY IDOCK:   -6.02 KCAL/MOL
REMARK 924 INTRA-LIGAND FREE ENERGY PREDICTED BY IDOCK:   -1.05 KCAL/MOL
REMARK 927      BINDING AFFINITY PREDICTED BY RF-SCORE:    0.00 PKD
ROOT
HETATM    1  C   UNL     1      -9.825  16.314  65.717  1.00  0.00    -0.299 C  
HETATM    2  O   UNL     1     -11.102  15.703  65.523  1.00  0.00    -0.303 OA 
ENDROOT
BRANCH   2   3
HETATM    3  C   UNL     1     -11.102  14.343  65.688  1.00  0.00    -0.321 A  
HETATM    4  C   UNL     1     -11.640  13.859  66.881  1.00  0.00    -0.378 A  
HETATM    5  O   UNL     1     -12.131  14.724  67.819  1.00  0.00    -0.548 OA 
HETATM    6  C   UNL     1     -11.660  12.496  67.167  1.00  0.00    -0.437 A  
HETATM    7  C   UNL     1     -11.125  11.600  66.240  1.00  0.00    -0.345 A  
HETATM    8  H   UNL     1     -12.497  14.394  68.631  1.00  0.00     0.000 HD 
HETATM    9  C   UNL     1     -10.600  12.058  65.026  1.00  0.00    -0.332 A  
HETATM   10  C   UNL     1     -10.615  13.436  64.747  1.00  0.00    -0.420 A  
BRANCH   9  11
HETATM   11  C   UNL     1      -9.942  11.122  64.048  1.00  0.00    -0.323 C  
BRANCH  11  12
HETATM   12  N   UNL     1      -9.711   9.828  64.619  1.00  0.00    -0.427 N  
HETATM   13  C   UNL     1      -8.466   9.445  65.059  1.00  0.00    -0.159 C  
HETATM   14  H   UNL     1     -10.489   9.174  64.701  1.00  0.00     0.000 HD 
HETATM   15  O   UNL     1      -7.477  10.154  65.021  1.00  0.00    -0.136 OA 
BRANCH  13  16
HETATM   16  C   UNL     1      -8.441   8.012  65.519  1.00  0.00    -0.159 C  
BRANCH  16  17
HETATM   17  C   UNL     1      -9.451   7.712  66.618  1.00  0.00    -0.255 C  
BRANCH  17  18
HETATM   18  C   UNL     1      -8.922   6.742  67.685  1.00  0.00    -0.115 C  
BRANCH  18  19
HETATM   19  C   UNL     1      -9.241   5.258  67.457  1.00  0.00    -0.119 C  
BRANCH  19  20
HETATM   20  C   UNL     1     -10.461   5.004  66.612  1.00  0.00    -0.301 C  
HETATM   21  C   UNL     1     -10.480   4.436  65.393  1.00  0.00    -0.219 C  
HETATM   22  C   UNL     1      -9.309   3.800  64.686  1.00  0.00    -0.153 C  
HETATM   23  C   UNL     1      -8.588   4.794  63.777  1.00  0.00    -0.133 C  
HETATM   24  C   UNL     1      -9.779   2.584  63.890  1.00  0.00    -0.140 C  
ENDBRANCH  19  20
ENDBRANCH  18  19
ENDBRANCH  17  18
ENDBRANCH  16  17
ENDBRANCH  13  16
ENDBRANCH  11  12
ENDBRANCH   9  11
ENDBRANCH   2   3
TORSDOF 8
ENDMDL
MODEL      247
REMARK 921   NORMALIZED FREE ENERGY PREDICTED BY IDOCK:   -3.98 KCAL/MOL
REMARK 922        TOTAL FREE ENERGY PREDICTED BY IDOCK:   -7.06 KCAL/MOL
REMARK 923 INTER-LIGAND FREE ENERGY PREDICTED BY IDOCK:   -6.19 KCAL/MOL
REMARK 924 INTRA-LIGAND FREE ENERGY PREDICTED BY IDOCK:   -0.87 KCAL/MOL
REMARK 927      BINDING AFFINITY PREDICTED BY RF-SCORE:    0.00 PKD
ROOT
HETATM    1  C   UNL     1     -14.408  15.244  72.028  1.00  0.00    -0.589 C  
HETATM    2  O   UNL     1     -13.055  14.927  72.361  1.00  0.00    -0.317 OA 
ENDROOT
BRANCH   2   3
HETATM    3  C   UNL     1     -12.229  14.790  71.276  1.00  0.00    -0.333 A  
HETATM    4  C   UNL     1     -12.198  13.535  70.669  1.00  0.00    -0.358 A  
HETATM    5  O   UNL     1     -12.963  12.512  71.158  1.00  0.00    -0.271 OA 
HETATM    6  C   UNL     1     -11.369  13.275  69.580  1.00  0.00    -0.191 A  
HETATM    7  C   UNL     1     -10.549  14.294  69.094  1.00  0.00    -0.201 A  
HETATM    8  H   UNL     1     -12.942  11.657  70.744  1.00  0.00     0.000 HD 
HETATM    9  C   UNL     1     -10.578  15.570  69.671  1.00  0.00    -0.285 A  
HETATM   10  C   UNL     1     -11.443  15.816  70.751  1.00  0.00    -0.423 A  
BRANCH   9  11
HETATM   11  C   UNL     1      -9.644  16.661  69.219  1.00  0.00    -0.148 C  
BRANCH  11  12
HETATM   12  N   UNL     1      -9.937  17.098  67.886  1.00  0.00    -0.281 N  
HETATM   13  C   UNL     1      -9.918  18.429  67.543  1.00  0.00    -0.335 C  
HETATM   14  H   UNL     1     -10.165  16.404  67.174  1.00  0.00     0.000 HD 
HETATM   15  O   UNL     1      -9.644  19.332  68.312  1.00  0.00    -0.328 OA 
BRANCH  13  16
HETATM   16  C   UNL     1     -10.360  18.656  66.122  1.00  0.00    -0.481 C  
BRANCH  16  17
HETATM   17  C   UNL     1     -10.170  17.438  65.228  1.00  0.00     0.359 C  
BRANCH  17  18
HETATM   18  C   UNL     1     -11.475  16.679  64.945  1.00  0.00     0.212 C  
BRANCH  18  19
HETATM   19  C   UNL     1     -11.325  15.183  64.638  1.00  0.00    -0.362 C  
BRANCH  19  20
HETATM   20  C   UNL     1     -12.271  14.291  65.397  1.00  0.00    -0.408 C  
HETATM   21  C   UNL     1     -12.224  12.948  65.454  1.00  0.00    -0.528 C  
HETATM   22  C   UNL     1     -11.132  12.068  64.899  1.00  0.00    -0.368 C  
HETATM   23  C   UNL     1     -11.447  11.602  63.479  1.00  0.00    -0.427 C  
HETATM   24  C   UNL     1     -10.907  10.871  65.822  1.00  0.00    -0.120 C  
ENDBRANCH  19  20
ENDBRANCH  18  19
ENDBRANCH  17  18
ENDBRANCH  16  17
ENDBRANCH  13  16
ENDBRANCH  11  12
ENDBRANCH   9  11
ENDBRANCH   2   3
TORSDOF 8
ENDMDL
MODEL      248
REMARK 921   NORMALIZED FREE ENERGY PREDICTED BY IDOCK:   -3.98 KCAL/MOL
REMARK 922        TOTAL FREE ENERGY PREDICTED BY IDOCK:   -7.05 KCAL/MOL
REMARK 923 INTER-LIGAND FREE ENERGY PREDICTED BY IDOCK:   -5.87 KCAL/MOL
REMARK 924 INTRA-LIGAND FREE ENERGY PREDICTED BY IDOCK:   -1.19 KCAL/MOL
REMARK 927      BINDING AFFINITY PREDICTED BY RF-SCORE:    0.00 PKD
ROOT
HETATM    1  C   UNL     1      -6.296   9.374  70.292  1.00  0.00    -0.060 C  
HETATM    2  O   UNL     1      -7.373  10.307  70.397  1.00  0.00    -0.258 OA 
ENDROOT
BRANCH   2   3
HETATM    3  C   UNL     1      -7.710  10.909  69.213  1.00  0.00    -0.099 A  
HETATM    4  C   UNL     1      -7.234  12.205  69.013  1.00  0.00    -0.037 A  
HETATM    5  O   UNL     1      -6.474  12.817  69.970  1.00  0.00    -0.339 OA 
HETATM    6  C   UNL     1      -7.545  12.921  67.860  1.00  0.00    -0.138 A  
HETATM    7  C   UNL     1      -8.355  12.329  66.890  1.00  0.00    -0.137 A  
HETATM    8  H   UNL     1      -6.149  13.699  69.833  1.00  0.00     0.000 HD 
HETATM    9  C   UNL     1      -8.827  11.021  67.057  1.00  0.00    -0.143 A  
HETATM   10  C   UNL     1      -8.477  10.307  68.216  1.00  0.00    -0.121 A  
BRANCH   9  11
HETATM   11  C   UNL     1      -9.769  10.391  66.066  1.00  0.00    -0.211 C  
BRANCH  11  12
HETATM   12  N   UNL     1     -10.696  11.343  65.529  1.00  0.00    -0.272 N  
HETATM   13  C   UNL     1     -10.510  11.912  64.291  1.00  0.00    -0.326 C  
HETATM   14  H   UNL     1     -11.514  11.606  66.079  1.00  0.00     0.000 HD 
HETATM   15  O   UNL     1      -9.578  11.656  63.551  1.00  0.00    -0.286 OA 
BRANCH  13  16
HETATM   16  C   UNL     1     -11.548  12.958  63.984  1.00  0.00    -0.486 C  
BRANCH  16  17
HETATM   17  C   UNL     1     -11.819  13.900  65.149  1.00  0.00    -0.370 C  
BRANCH  17  18
HETATM   18  C   UNL     1     -10.626  14.805  65.493  1.00  0.00    -0.374 C  
BRANCH  18  19
HETATM   19  C   UNL     1     -10.597  15.359  66.923  1.00  0.00    -0.309 C  
BRANCH  19  20
HETATM   20  C   UNL     1      -9.357  16.140  67.266  1.00  0.00    -0.220 C  
HETATM   21  C   UNL     1      -9.261  17.479  67.362  1.00  0.00    -0.238 C  
HETATM   22  C   UNL     1     -10.403  18.462  67.299  1.00  0.00    -0.417 C  
HETATM   23  C   UNL     1     -10.628  18.977  65.879  1.00  0.00    -0.466 C  
HETATM   24  C   UNL     1     -10.145  19.623  68.258  1.00  0.00    -0.560 C  
ENDBRANCH  19  20
ENDBRANCH  18  19
ENDBRANCH  17  18
ENDBRANCH  16  17
ENDBRANCH  13  16
ENDBRANCH  11  12
ENDBRANCH   9  11
ENDBRANCH   2   3
TORSDOF 8
ENDMDL
MODEL      249
REMARK 921   NORMALIZED FREE ENERGY PREDICTED BY IDOCK:   -3.97 KCAL/MOL
REMARK 922        TOTAL FREE ENERGY PREDICTED BY IDOCK:   -7.05 KCAL/MOL
REMARK 923 INTER-LIGAND FREE ENERGY PREDICTED BY IDOCK:   -6.04 KCAL/MOL
REMARK 924 INTRA-LIGAND FREE ENERGY PREDICTED BY IDOCK:   -1.01 KCAL/MOL
REMARK 927      BINDING AFFINITY PREDICTED BY RF-SCORE:    0.00 PKD
ROOT
HETATM    1  C   UNL     1     -12.177   8.775  71.322  1.00  0.00    -0.287 C  
HETATM    2  O   UNL     1     -11.292   9.893  71.229  1.00  0.00    -0.368 OA 
ENDROOT
BRANCH   2   3
HETATM    3  C   UNL     1     -11.263  10.483  69.993  1.00  0.00    -0.315 A  
HETATM    4  C   UNL     1     -11.783  11.774  69.904  1.00  0.00    -0.323 A  
HETATM    5  O   UNL     1     -12.292  12.391  71.014  1.00  0.00    -0.349 OA 
HETATM    6  C   UNL     1     -11.833  12.454  68.690  1.00  0.00    -0.348 A  
HETATM    7  C   UNL     1     -11.358  11.825  67.539  1.00  0.00    -0.377 A  
HETATM    8  H   UNL     1     -12.645  13.271  70.953  1.00  0.00     0.000 HD 
HETATM    9  C   UNL     1     -10.810  10.537  67.605  1.00  0.00    -0.355 A  
HETATM   10  C   UNL     1     -10.744   9.881  68.846  1.00  0.00    -0.244 A  
BRANCH   9  11
HETATM   11  C   UNL     1     -10.368   9.805  66.366  1.00  0.00    -0.177 C  
BRANCH  11  12
HETATM   12  N   UNL     1     -10.403   8.383  66.544  1.00  0.00    -0.399 N  
HETATM   13  C   UNL     1      -9.263   7.618  66.464  1.00  0.00    -0.176 C  
HETATM   14  H   UNL     1     -11.295   7.928  66.734  1.00  0.00     0.000 HD 
HETATM   15  O   UNL     1      -8.150   8.064  66.257  1.00  0.00    -0.104 OA 
BRANCH  13  16
HETATM   16  C   UNL     1      -9.559   6.146  66.577  1.00  0.00    -0.183 C  
BRANCH  16  17
HETATM   17  C   UNL     1     -10.868   5.845  67.293  1.00  0.00    -0.351 C  
BRANCH  17  18
HETATM   18  C   UNL     1     -10.697   5.601  68.800  1.00  0.00    -0.267 C  
BRANCH  18  19
HETATM   19  C   UNL     1      -9.454   4.800  69.211  1.00  0.00    -0.221 C  
BRANCH  19  20
HETATM   20  C   UNL     1      -9.700   3.771  70.282  1.00  0.00    -0.222 C  
HETATM   21  C   UNL     1      -9.907   4.016  71.588  1.00  0.00    -0.253 C  
HETATM   22  C   UNL     1     -10.088   5.371  72.225  1.00  0.00    -0.231 C  
HETATM   23  C   UNL     1      -8.765   5.939  72.734  1.00  0.00    -0.125 C  
HETATM   24  C   UNL     1     -11.108   5.282  73.358  1.00  0.00    -0.362 C  
ENDBRANCH  19  20
ENDBRANCH  18  19
ENDBRANCH  17  18
ENDBRANCH  16  17
ENDBRANCH  13  16
ENDBRANCH  11  12
ENDBRANCH   9  11
ENDBRANCH   2   3
TORSDOF 8
ENDMDL
MODEL      250
REMARK 921   NORMALIZED FREE ENERGY PREDICTED BY IDOCK:   -3.96 KCAL/MOL
REMARK 922        TOTAL FREE ENERGY PREDICTED BY IDOCK:   -7.02 KCAL/MOL
REMARK 923 INTER-LIGAND FREE ENERGY PREDICTED BY IDOCK:   -6.17 KCAL/MOL
REMARK 924 INTRA-LIGAND FREE ENERGY PREDICTED BY IDOCK:   -0.85 KCAL/MOL
REMARK 927      BINDING AFFINITY PREDICTED BY RF-SCORE:    0.00 PKD
ROOT
HETATM    1  C   UNL     1     -11.027   6.644  67.060  1.00  0.00    -0.393 C  
HETATM    2  O   UNL     1     -10.330   5.409  67.236  1.00  0.00    -0.202 OA 
ENDROOT
BRANCH   2   3
HETATM    3  C   UNL     1     -10.145   5.053  68.546  1.00  0.00    -0.114 A  
HETATM    4  C   UNL     1      -9.385   3.906  68.780  1.00  0.00    -0.166 A  
HETATM    5  O   UNL     1      -8.868   3.195  67.733  1.00  0.00    -0.108 OA 
HETATM    6  C   UNL     1      -9.163   3.435  70.071  1.00  0.00    -0.220 A  
HETATM    7  C   UNL     1      -9.718   4.123  71.151  1.00  0.00    -0.258 A  
HETATM    8  H   UNL     1      -8.350   2.415  67.893  1.00  0.00     0.000 HD 
HETATM    9  C   UNL     1     -10.466   5.289  70.944  1.00  0.00    -0.285 A  
HETATM   10  C   UNL     1     -10.654   5.762  69.634  1.00  0.00    -0.396 A  
BRANCH   9  11
HETATM   11  C   UNL     1     -11.145   6.002  72.083  1.00  0.00    -0.279 C  
BRANCH  11  12
HETATM   12  N   UNL     1     -11.026   7.426  71.971  1.00  0.00    -0.230 N  
HETATM   13  C   UNL     1     -12.108   8.219  71.672  1.00  0.00    -0.306 C  
HETATM   14  H   UNL     1     -10.115   7.862  72.116  1.00  0.00     0.000 HD 
HETATM   15  O   UNL     1     -13.238   7.801  71.495  1.00  0.00    -0.334 OA 
BRANCH  13  16
HETATM   16  C   UNL     1     -11.724   9.664  71.501  1.00  0.00    -0.472 C  
BRANCH  16  17
HETATM   17  C   UNL     1     -12.768  10.483  70.754  1.00  0.00    -0.471 C  
BRANCH  17  18
HETATM   18  C   UNL     1     -12.266  11.034  69.411  1.00  0.00    -0.329 C  
BRANCH  18  19
HETATM   19  C   UNL     1     -11.015  10.356  68.835  1.00  0.00    -0.289 C  
BRANCH  19  20
HETATM   20  C   UNL     1      -9.878  11.296  68.532  1.00  0.00    -0.198 C  
HETATM   21  C   UNL     1      -9.631  11.889  67.351  1.00  0.00    -0.176 C  
HETATM   22  C   UNL     1     -10.520  11.859  66.132  1.00  0.00    -0.272 C  
HETATM   23  C   UNL     1     -10.149  10.717  65.189  1.00  0.00    -0.363 C  
HETATM   24  C   UNL     1     -10.455  13.201  65.406  1.00  0.00    -0.307 C  
ENDBRANCH  19  20
ENDBRANCH  18  19
ENDBRANCH  17  18
ENDBRANCH  16  17
ENDBRANCH  13  16
ENDBRANCH  11  12
ENDBRANCH   9  11
ENDBRANCH   2   3
TORSDOF 8
ENDMDL
MODEL      251
REMARK 921   NORMALIZED FREE ENERGY PREDICTED BY IDOCK:   -3.96 KCAL/MOL
REMARK 922        TOTAL FREE ENERGY PREDICTED BY IDOCK:   -7.02 KCAL/MOL
REMARK 923 INTER-LIGAND FREE ENERGY PREDICTED BY IDOCK:   -6.10 KCAL/MOL
REMARK 924 INTRA-LIGAND FREE ENERGY PREDICTED BY IDOCK:   -0.92 KCAL/MOL
REMARK 927      BINDING AFFINITY PREDICTED BY RF-SCORE:    0.00 PKD
ROOT
HETATM    1  C   UNL     1      -8.119  12.234  68.297  1.00  0.00    -0.166 C  
HETATM    2  O   UNL     1      -8.561  12.136  66.942  1.00  0.00    -0.191 OA 
ENDROOT
BRANCH   2   3
HETATM    3  C   UNL     1      -9.400  13.147  66.552  1.00  0.00    -0.216 A  
HETATM    4  C   UNL     1     -10.059  12.977  65.335  1.00  0.00    -0.252 A  
HETATM    5  O   UNL     1      -9.856  11.847  64.591  1.00  0.00    -0.321 OA 
HETATM    6  C   UNL     1     -10.909  13.956  64.827  1.00  0.00    -0.430 A  
HETATM    7  C   UNL     1     -11.097  15.134  65.551  1.00  0.00    -0.347 A  
HETATM    8  H   UNL     1     -10.305  11.731  63.762  1.00  0.00     0.000 HD 
HETATM    9  C   UNL     1     -10.464  15.320  66.787  1.00  0.00    -0.293 A  
HETATM   10  C   UNL     1      -9.632  14.306  67.292  1.00  0.00    -0.232 A  
BRANCH   9  11
HETATM   11  C   UNL     1     -10.584  16.614  67.546  1.00  0.00    -0.311 C  
BRANCH  11  12
HETATM   12  N   UNL     1     -10.069  17.723  66.799  1.00  0.00    -0.333 N  
HETATM   13  C   UNL     1     -10.554  18.998  66.973  1.00  0.00    -0.461 C  
HETATM   14  H   UNL     1      -9.325  17.563  66.120  1.00  0.00     0.000 HD 
HETATM   15  O   UNL     1     -11.427  19.297  67.766  1.00  0.00     0.138 OA 
BRANCH  13  16
HETATM   16  C   UNL     1      -9.940  19.976  66.008  1.00  0.00    -0.542 C  
BRANCH  16  17
HETATM   17  C   UNL     1      -8.635  20.581  66.507  1.00  0.00    -0.094 C  
BRANCH  17  18
HETATM   18  C   UNL     1      -7.391  20.006  65.813  1.00  0.00    -0.321 C  
BRANCH  18  19
HETATM   19  C   UNL     1      -6.043  20.569  66.283  1.00  0.00    -0.241 C  
BRANCH  19  20
HETATM   20  C   UNL     1      -6.066  21.181  67.658  1.00  0.00    -0.425 C  
HETATM   21  C   UNL     1      -6.083  20.513  68.826  1.00  0.00    -0.373 C  
HETATM   22  C   UNL     1      -5.930  19.023  69.004  1.00  0.00    -0.242 C  
HETATM   23  C   UNL     1      -7.282  18.314  69.032  1.00  0.00    -0.237 C  
HETATM   24  C   UNL     1      -5.141  18.730  70.279  1.00  0.00    -0.210 C  
ENDBRANCH  19  20
ENDBRANCH  18  19
ENDBRANCH  17  18
ENDBRANCH  16  17
ENDBRANCH  13  16
ENDBRANCH  11  12
ENDBRANCH   9  11
ENDBRANCH   2   3
TORSDOF 8
ENDMDL
MODEL      252
REMARK 921   NORMALIZED FREE ENERGY PREDICTED BY IDOCK:   -3.94 KCAL/MOL
REMARK 922        TOTAL FREE ENERGY PREDICTED BY IDOCK:   -7.00 KCAL/MOL
REMARK 923 INTER-LIGAND FREE ENERGY PREDICTED BY IDOCK:   -4.89 KCAL/MOL
REMARK 924 INTRA-LIGAND FREE ENERGY PREDICTED BY IDOCK:   -2.12 KCAL/MOL
REMARK 927      BINDING AFFINITY PREDICTED BY RF-SCORE:    0.00 PKD
ROOT
HETATM    1  C   UNL     1      -7.239   9.336  70.751  1.00  0.00    -0.121 C  
HETATM    2  O   UNL     1      -8.661   9.399  70.633  1.00  0.00    -0.223 OA 
ENDROOT
BRANCH   2   3
HETATM    3  C   UNL     1      -9.120   9.325  69.344  1.00  0.00    -0.152 A  
HETATM    4  C   UNL     1     -10.246  10.089  69.037  1.00  0.00    -0.203 A  
HETATM    5  O   UNL     1     -10.840  10.860  69.997  1.00  0.00    -0.435 OA 
HETATM    6  C   UNL     1     -10.816  10.062  67.766  1.00  0.00    -0.337 A  
HETATM    7  C   UNL     1     -10.249   9.249  66.785  1.00  0.00    -0.325 A  
HETATM    8  H   UNL     1     -11.607  11.380  69.787  1.00  0.00     0.000 HD 
HETATM    9  C   UNL     1      -9.105   8.489  67.061  1.00  0.00    -0.170 A  
HETATM   10  C   UNL     1      -8.531   8.553  68.342  1.00  0.00    -0.138 A  
BRANCH   9  11
HETATM   11  C   UNL     1      -8.524   7.541  66.046  1.00  0.00    -0.148 C  
BRANCH  11  12
HETATM   12  N   UNL     1      -8.103   6.309  66.644  1.00  0.00    -0.108 N  
HETATM   13  C   UNL     1      -8.837   5.154  66.514  1.00  0.00    -0.117 C  
HETATM   14  H   UNL     1      -7.235   6.288  67.180  1.00  0.00     0.000 HD 
HETATM   15  O   UNL     1      -9.875   5.070  65.884  1.00  0.00    -0.169 OA 
BRANCH  13  16
HETATM   16  C   UNL     1      -8.257   4.018  67.313  1.00  0.00    -0.099 C  
BRANCH  16  17
HETATM   17  C   UNL     1      -9.306   3.210  68.063  1.00  0.00    -0.248 C  
BRANCH  17  18
HETATM   18  C   UNL     1      -8.842   2.747  69.453  1.00  0.00    -0.152 C  
BRANCH  18  19
HETATM   19  C   UNL     1      -9.513   3.440  70.647  1.00  0.00    -0.243 C  
BRANCH  19  20
HETATM   20  C   UNL     1      -8.978   4.814  70.953  1.00  0.00    -0.160 C  
HETATM   21  C   UNL     1      -9.636   5.976  70.795  1.00  0.00    -0.197 C  
HETATM   22  C   UNL     1     -11.090   6.137  70.426  1.00  0.00    -0.420 C  
HETATM   23  C   UNL     1     -11.278   6.281  68.917  1.00  0.00    -0.387 C  
HETATM   24  C   UNL     1     -11.685   7.336  71.160  1.00  0.00    -0.334 C  
ENDBRANCH  19  20
ENDBRANCH  18  19
ENDBRANCH  17  18
ENDBRANCH  16  17
ENDBRANCH  13  16
ENDBRANCH  11  12
ENDBRANCH   9  11
ENDBRANCH   2   3
TORSDOF 8
ENDMDL
MODEL      253
REMARK 921   NORMALIZED FREE ENERGY PREDICTED BY IDOCK:   -3.92 KCAL/MOL
REMARK 922        TOTAL FREE ENERGY PREDICTED BY IDOCK:   -6.97 KCAL/MOL
REMARK 923 INTER-LIGAND FREE ENERGY PREDICTED BY IDOCK:   -5.50 KCAL/MOL
REMARK 924 INTRA-LIGAND FREE ENERGY PREDICTED BY IDOCK:   -1.48 KCAL/MOL
REMARK 927      BINDING AFFINITY PREDICTED BY RF-SCORE:    0.00 PKD
ROOT
HETATM    1  C   UNL     1      -7.598   5.641  70.953  1.00  0.00    -0.091 C  
HETATM    2  O   UNL     1      -8.788   6.421  71.078  1.00  0.00    -0.138 OA 
ENDROOT
BRANCH   2   3
HETATM    3  C   UNL     1      -8.919   7.399  70.128  1.00  0.00    -0.148 A  
HETATM    4  C   UNL     1      -8.709   8.712  70.550  1.00  0.00    -0.162 A  
HETATM    5  O   UNL     1      -8.392   8.977  71.854  1.00  0.00    -0.365 OA 
HETATM    6  C   UNL     1      -8.849   9.786  69.675  1.00  0.00    -0.224 A  
HETATM    7  C   UNL     1      -9.213   9.540  68.350  1.00  0.00    -0.130 A  
HETATM    8  H   UNL     1      -8.249   9.871  72.140  1.00  0.00     0.000 HD 
HETATM    9  C   UNL     1      -9.408   8.230  67.896  1.00  0.00    -0.150 A  
HETATM   10  C   UNL     1      -9.234   7.160  68.790  1.00  0.00    -0.136 A  
BRANCH   9  11
HETATM   11  C   UNL     1      -9.882   7.943  66.496  1.00  0.00    -0.202 C  
BRANCH  11  12
HETATM   12  N   UNL     1     -10.138   9.146  65.761  1.00  0.00    -0.380 N  
HETATM   13  C   UNL     1      -9.274   9.598  64.791  1.00  0.00    -0.238 C  
HETATM   14  H   UNL     1     -10.983   9.682  65.962  1.00  0.00     0.000 HD 
HETATM   15  O   UNL     1      -8.250   9.026  64.466  1.00  0.00    -0.142 OA 
BRANCH  13  16
HETATM   16  C   UNL     1      -9.693  10.931  64.232  1.00  0.00    -0.347 C  
BRANCH  16  17
HETATM   17  C   UNL     1      -9.608  12.065  65.244  1.00  0.00    -0.117 C  
BRANCH  17  18
HETATM   18  C   UNL     1     -10.678  13.148  65.040  1.00  0.00    -0.338 C  
BRANCH  18  19
HETATM   19  C   UNL     1     -11.963  12.982  65.861  1.00  0.00    -0.491 C  
BRANCH  19  20
HETATM   20  C   UNL     1     -11.823  12.098  67.071  1.00  0.00    -0.288 C  
HETATM   21  C   UNL     1     -11.602  12.508  68.333  1.00  0.00    -0.368 C  
HETATM   22  C   UNL     1     -11.602  13.935  68.822  1.00  0.00    -0.370 C  
HETATM   23  C   UNL     1     -10.201  14.541  68.800  1.00  0.00    -0.244 C  
HETATM   24  C   UNL     1     -12.198  14.004  70.227  1.00  0.00    -0.430 C  
ENDBRANCH  19  20
ENDBRANCH  18  19
ENDBRANCH  17  18
ENDBRANCH  16  17
ENDBRANCH  13  16
ENDBRANCH  11  12
ENDBRANCH   9  11
ENDBRANCH   2   3
TORSDOF 8
ENDMDL
MODEL      254
REMARK 921   NORMALIZED FREE ENERGY PREDICTED BY IDOCK:   -3.92 KCAL/MOL
REMARK 922        TOTAL FREE ENERGY PREDICTED BY IDOCK:   -6.97 KCAL/MOL
REMARK 923 INTER-LIGAND FREE ENERGY PREDICTED BY IDOCK:   -5.49 KCAL/MOL
REMARK 924 INTRA-LIGAND FREE ENERGY PREDICTED BY IDOCK:   -1.47 KCAL/MOL
REMARK 927      BINDING AFFINITY PREDICTED BY RF-SCORE:    0.00 PKD
ROOT
HETATM    1  C   UNL     1     -10.015  10.939  63.284  1.00  0.00    -0.349 C  
HETATM    2  O   UNL     1      -8.988  10.496  64.173  1.00  0.00    -0.195 OA 
ENDROOT
BRANCH   2   3
HETATM    3  C   UNL     1      -9.151  10.912  65.468  1.00  0.00    -0.201 A  
HETATM    4  C   UNL     1      -7.988  11.097  66.216  1.00  0.00    -0.125 A  
HETATM    5  O   UNL     1      -6.762  10.864  65.655  1.00  0.00    -0.323 OA 
HETATM    6  C   UNL     1      -8.038  11.486  67.552  1.00  0.00    -0.137 A  
HETATM    7  C   UNL     1      -9.281  11.687  68.154  1.00  0.00    -0.184 A  
HETATM    8  H   UNL     1      -5.970  10.991  66.164  1.00  0.00     0.000 HD 
HETATM    9  C   UNL     1     -10.463  11.529  67.419  1.00  0.00    -0.240 A  
HETATM   10  C   UNL     1     -10.386  11.164  66.064  1.00  0.00    -0.308 A  
BRANCH   9  11
HETATM   11  C   UNL     1     -11.816  11.658  68.066  1.00  0.00    -0.225 C  
BRANCH  11  12
HETATM   12  N   UNL     1     -12.157  10.496  68.831  1.00  0.00    -0.483 N  
HETATM   13  C   UNL     1     -12.184  10.518  70.206  1.00  0.00    -0.311 C  
HETATM   14  H   UNL     1     -12.385   9.629  68.343  1.00  0.00     0.000 HD 
HETATM   15  O   UNL     1     -11.943  11.502  70.880  1.00  0.00    -0.307 OA 
BRANCH  13  16
HETATM   16  C   UNL     1     -12.462   9.159  70.790  1.00  0.00    -0.057 C  
BRANCH  16  17
HETATM   17  C   UNL     1     -12.180   9.074  72.284  1.00  0.00    -0.387 C  
BRANCH  17  18
HETATM   18  C   UNL     1     -11.176   7.972  72.654  1.00  0.00    -0.462 C  
BRANCH  18  19
HETATM   19  C   UNL     1     -10.918   6.912  71.575  1.00  0.00    -0.268 C  
BRANCH  19  20
HETATM   20  C   UNL     1      -9.542   6.961  70.966  1.00  0.00    -0.172 C  
HETATM   21  C   UNL     1      -9.253   6.960  69.653  1.00  0.00    -0.146 C  
HETATM   22  C   UNL     1     -10.245   7.062  68.520  1.00  0.00    -0.183 C  
HETATM   23  C   UNL     1     -10.680   5.686  68.023  1.00  0.00    -0.235 C  
HETATM   24  C   UNL     1      -9.649   7.884  67.379  1.00  0.00    -0.195 C  
ENDBRANCH  19  20
ENDBRANCH  18  19
ENDBRANCH  17  18
ENDBRANCH  16  17
ENDBRANCH  13  16
ENDBRANCH  11  12
ENDBRANCH   9  11
ENDBRANCH   2   3
TORSDOF 8
ENDMDL
MODEL      255
REMARK 921   NORMALIZED FREE ENERGY PREDICTED BY IDOCK:   -3.92 KCAL/MOL
REMARK 922        TOTAL FREE ENERGY PREDICTED BY IDOCK:   -6.96 KCAL/MOL
REMARK 923 INTER-LIGAND FREE ENERGY PREDICTED BY IDOCK:   -5.91 KCAL/MOL
REMARK 924 INTRA-LIGAND FREE ENERGY PREDICTED BY IDOCK:   -1.06 KCAL/MOL
REMARK 927      BINDING AFFINITY PREDICTED BY RF-SCORE:    0.00 PKD
ROOT
HETATM    1  C   UNL     1      -9.109  10.442  69.189  1.00  0.00    -0.187 C  
HETATM    2  O   UNL     1     -10.518  10.575  68.995  1.00  0.00    -0.191 OA 
ENDROOT
BRANCH   2   3
HETATM    3  C   UNL     1     -10.923  11.845  68.681  1.00  0.00    -0.228 A  
HETATM    4  C   UNL     1     -11.685  12.514  69.640  1.00  0.00    -0.302 A  
HETATM    5  O   UNL     1     -11.997  11.903  70.823  1.00  0.00    -0.442 OA 
HETATM    6  C   UNL     1     -12.176  13.797  69.410  1.00  0.00    -0.325 A  
HETATM    7  C   UNL     1     -11.904  14.420  68.192  1.00  0.00    -0.362 A  
HETATM    8  H   UNL     1     -12.515  12.358  71.475  1.00  0.00     0.000 HD 
HETATM    9  C   UNL     1     -11.123  13.780  67.222  1.00  0.00    -0.319 A  
HETATM   10  C   UNL     1     -10.614  12.497  67.486  1.00  0.00    -0.238 A  
BRANCH   9  11
HETATM   11  C   UNL     1     -10.886  14.396  65.869  1.00  0.00    -0.304 C  
BRANCH  11  12
HETATM   12  N   UNL     1     -10.410  13.435  64.919  1.00  0.00    -0.447 N  
HETATM   13  C   UNL     1     -11.207  12.973  63.898  1.00  0.00    -0.389 C  
HETATM   14  H   UNL     1      -9.456  13.083  65.002  1.00  0.00     0.000 HD 
HETATM   15  O   UNL     1     -12.351  13.340  63.702  1.00  0.00    -0.665 OA 
BRANCH  13  16
HETATM   16  C   UNL     1     -10.533  11.895  63.094  1.00  0.00    -0.327 C  
BRANCH  16  17
HETATM   17  C   UNL     1      -9.412  11.191  63.846  1.00  0.00    -0.252 C  
BRANCH  17  18
HETATM   18  C   UNL     1      -9.894   9.996  64.683  1.00  0.00    -0.288 C  
BRANCH  18  19
HETATM   19  C   UNL     1      -8.842   8.918  64.976  1.00  0.00    -0.183 C  
BRANCH  19  20
HETATM   20  C   UNL     1      -9.034   8.197  66.284  1.00  0.00    -0.215 C  
HETATM   21  C   UNL     1      -8.066   7.650  67.040  1.00  0.00    -0.117 C  
HETATM   22  C   UNL     1      -6.579   7.776  66.816  1.00  0.00    -0.058 C  
HETATM   23  C   UNL     1      -6.033   6.620  65.980  1.00  0.00    -0.030 C  
HETATM   24  C   UNL     1      -5.855   7.860  68.157  1.00  0.00    -0.040 C  
ENDBRANCH  19  20
ENDBRANCH  18  19
ENDBRANCH  17  18
ENDBRANCH  16  17
ENDBRANCH  13  16
ENDBRANCH  11  12
ENDBRANCH   9  11
ENDBRANCH   2   3
TORSDOF 8
ENDMDL
MODEL      256
REMARK 921   NORMALIZED FREE ENERGY PREDICTED BY IDOCK:   -3.91 KCAL/MOL
REMARK 922        TOTAL FREE ENERGY PREDICTED BY IDOCK:   -6.95 KCAL/MOL
REMARK 923 INTER-LIGAND FREE ENERGY PREDICTED BY IDOCK:   -6.30 KCAL/MOL
REMARK 924 INTRA-LIGAND FREE ENERGY PREDICTED BY IDOCK:   -0.66 KCAL/MOL
REMARK 927      BINDING AFFINITY PREDICTED BY RF-SCORE:    0.00 PKD
ROOT
HETATM    1  C   UNL     1     -10.641  15.221  68.985  1.00  0.00    -0.245 C  
HETATM    2  O   UNL     1     -12.007  14.804  68.934  1.00  0.00    -0.303 OA 
ENDROOT
BRANCH   2   3
HETATM    3  C   UNL     1     -12.350  13.894  69.899  1.00  0.00    -0.300 A  
HETATM    4  C   UNL     1     -13.046  14.387  71.003  1.00  0.00    -0.353 A  
HETATM    5  O   UNL     1     -13.352  15.717  71.090  1.00  0.00    -0.564 OA 
HETATM    6  C   UNL     1     -13.415  13.556  72.058  1.00  0.00    -0.584 A  
HETATM    7  C   UNL     1     -13.074  12.204  72.009  1.00  0.00    -0.462 A  
HETATM    8  H   UNL     1     -13.826  16.052  71.841  1.00  0.00     0.000 HD 
HETATM    9  C   UNL     1     -12.396  11.680  70.901  1.00  0.00    -0.436 A  
HETATM   10  C   UNL     1     -12.058  12.532  69.836  1.00  0.00    -0.322 A  
BRANCH   9  11
HETATM   11  C   UNL     1     -11.944  10.244  70.861  1.00  0.00    -0.375 C  
BRANCH  11  12
HETATM   12  N   UNL     1     -11.573   9.837  69.539  1.00  0.00    -0.453 N  
HETATM   13  C   UNL     1     -10.306   9.386  69.251  1.00  0.00    -0.208 C  
HETATM   14  H   UNL     1     -12.266   9.882  68.792  1.00  0.00     0.000 HD 
HETATM   15  O   UNL     1      -9.413   9.280  70.071  1.00  0.00    -0.181 OA 
BRANCH  13  16
HETATM   16  C   UNL     1     -10.118   9.117  67.782  1.00  0.00    -0.253 C  
BRANCH  16  17
HETATM   17  C   UNL     1     -10.231  10.367  66.920  1.00  0.00    -0.281 C  
BRANCH  17  18
HETATM   18  C   UNL     1      -9.999  10.101  65.425  1.00  0.00    -0.377 C  
BRANCH  18  19
HETATM   19  C   UNL     1      -8.843   9.150  65.086  1.00  0.00    -0.241 C  
BRANCH  19  20
HETATM   20  C   UNL     1      -7.987   9.593  63.930  1.00  0.00    -0.143 C  
HETATM   21  C   UNL     1      -6.957   8.913  63.396  1.00  0.00    -0.089 C  
HETATM   22  C   UNL     1      -6.543   7.504  63.741  1.00  0.00    -0.053 C  
HETATM   23  C   UNL     1      -5.478   7.479  64.835  1.00  0.00    -0.033 C  
HETATM   24  C   UNL     1      -6.046   6.785  62.489  1.00  0.00    -0.039 C  
ENDBRANCH  19  20
ENDBRANCH  18  19
ENDBRANCH  17  18
ENDBRANCH  16  17
ENDBRANCH  13  16
ENDBRANCH  11  12
ENDBRANCH   9  11
ENDBRANCH   2   3
TORSDOF 8
ENDMDL
MODEL      257
REMARK 921   NORMALIZED FREE ENERGY PREDICTED BY IDOCK:   -3.90 KCAL/MOL
REMARK 922        TOTAL FREE ENERGY PREDICTED BY IDOCK:   -6.94 KCAL/MOL
REMARK 923 INTER-LIGAND FREE ENERGY PREDICTED BY IDOCK:   -6.14 KCAL/MOL
REMARK 924 INTRA-LIGAND FREE ENERGY PREDICTED BY IDOCK:   -0.80 KCAL/MOL
REMARK 927      BINDING AFFINITY PREDICTED BY RF-SCORE:    0.00 PKD
ROOT
HETATM    1  C   UNL     1     -10.122  11.274  63.109  1.00  0.00    -0.345 C  
HETATM    2  O   UNL     1     -11.387  11.559  63.707  1.00  0.00    -0.404 OA 
ENDROOT
BRANCH   2   3
HETATM    3  C   UNL     1     -11.357  12.579  64.622  1.00  0.00    -0.318 A  
HETATM    4  C   UNL     1     -11.907  13.796  64.221  1.00  0.00    -0.417 A  
HETATM    5  O   UNL     1     -12.441  13.933  62.969  1.00  0.00    -1.099 OA 
HETATM    6  C   UNL     1     -11.899  14.908  65.059  1.00  0.00    -0.299 A  
HETATM    7  C   UNL     1     -11.322  14.800  66.325  1.00  0.00    -0.334 A  
HETATM    8  H   UNL     1     -12.816  14.761  62.695  1.00  0.00     0.000 HD 
HETATM    9  C   UNL     1     -10.782  13.583  66.761  1.00  0.00    -0.278 A  
HETATM   10  C   UNL     1     -10.826  12.467  65.908  1.00  0.00    -0.305 A  
BRANCH   9  11
HETATM   11  C   UNL     1     -10.079  13.463  68.086  1.00  0.00    -0.244 C  
BRANCH  11  12
HETATM   12  N   UNL     1      -9.631  12.125  68.335  1.00  0.00    -0.268 N  
HETATM   13  C   UNL     1      -8.349  11.860  68.758  1.00  0.00     0.020 C  
HETATM   14  H   UNL     1     -10.279  11.350  68.196  1.00  0.00     0.000 HD 
HETATM   15  O   UNL     1      -7.506  12.712  68.968  1.00  0.00    -0.034 OA 
BRANCH  13  16
HETATM   16  C   UNL     1      -8.076  10.383  68.849  1.00  0.00    -0.129 C  
BRANCH  16  17
HETATM   17  C   UNL     1      -9.042   9.537  68.031  1.00  0.00    -0.126 C  
BRANCH  17  18
HETATM   18  C   UNL     1      -9.626   8.349  68.812  1.00  0.00    -0.150 C  
BRANCH  18  19
HETATM   19  C   UNL     1     -10.542   8.708  69.990  1.00  0.00    -0.233 C  
BRANCH  19  20
HETATM   20  C   UNL     1      -9.822   8.949  71.290  1.00  0.00    -0.361 C  
HETATM   21  C   UNL     1      -9.626   8.047  72.269  1.00  0.00    -0.286 C  
HETATM   22  C   UNL     1      -9.950   6.574  72.204  1.00  0.00    -0.173 C  
HETATM   23  C   UNL     1     -11.344   6.277  72.750  1.00  0.00    -0.236 C  
HETATM   24  C   UNL     1      -8.892   5.775  72.963  1.00  0.00    -0.123 C  
ENDBRANCH  19  20
ENDBRANCH  18  19
ENDBRANCH  17  18
ENDBRANCH  16  17
ENDBRANCH  13  16
ENDBRANCH  11  12
ENDBRANCH   9  11
ENDBRANCH   2   3
TORSDOF 8
ENDMDL
MODEL      258
REMARK 921   NORMALIZED FREE ENERGY PREDICTED BY IDOCK:   -3.90 KCAL/MOL
REMARK 922        TOTAL FREE ENERGY PREDICTED BY IDOCK:   -6.94 KCAL/MOL
REMARK 923 INTER-LIGAND FREE ENERGY PREDICTED BY IDOCK:   -5.20 KCAL/MOL
REMARK 924 INTRA-LIGAND FREE ENERGY PREDICTED BY IDOCK:   -1.73 KCAL/MOL
REMARK 927      BINDING AFFINITY PREDICTED BY RF-SCORE:    0.00 PKD
ROOT
HETATM    1  C   UNL     1     -13.100  11.202  71.694  1.00  0.00    -0.424 C  
HETATM    2  O   UNL     1     -13.313   9.966  71.010  1.00  0.00    -0.374 OA 
ENDROOT
BRANCH   2   3
HETATM    3  C   UNL     1     -12.526   8.937  71.455  1.00  0.00    -0.304 A  
HETATM    4  C   UNL     1     -13.095   7.663  71.437  1.00  0.00    -0.296 A  
HETATM    5  O   UNL     1     -14.377   7.485  70.995  1.00  0.00    -0.655 OA 
HETATM    6  C   UNL     1     -12.396   6.550  71.899  1.00  0.00    -0.339 A  
HETATM    7  C   UNL     1     -11.103   6.718  72.394  1.00  0.00    -0.292 A  
HETATM    8  H   UNL     1     -14.763   6.618  70.982  1.00  0.00     0.000 HD 
HETATM    9  C   UNL     1     -10.501   7.983  72.402  1.00  0.00    -0.368 A  
HETATM   10  C   UNL     1     -11.215   9.087  71.905  1.00  0.00    -0.438 A  
BRANCH   9  11
HETATM   11  C   UNL     1      -9.140   8.204  73.007  1.00  0.00    -0.274 C  
BRANCH  11  12
HETATM   12  N   UNL     1      -8.145   8.461  72.008  1.00  0.00    -0.141 N  
HETATM   13  C   UNL     1      -6.810   8.553  72.325  1.00  0.00    -0.077 C  
HETATM   14  H   UNL     1      -8.435   8.580  71.037  1.00  0.00     0.000 HD 
HETATM   15  O   UNL     1      -6.361   8.412  73.448  1.00  0.00    -0.104 OA 
BRANCH  13  16
HETATM   16  C   UNL     1      -5.969   8.934  71.137  1.00  0.00    -0.050 C  
BRANCH  16  17
HETATM   17  C   UNL     1      -6.782   9.468  69.967  1.00  0.00    -0.070 C  
BRANCH  17  18
HETATM   18  C   UNL     1      -6.765   8.545  68.739  1.00  0.00    -0.058 C  
BRANCH  18  19
HETATM   19  C   UNL     1      -8.067   8.486  67.928  1.00  0.00    -0.115 C  
BRANCH  19  20
HETATM   20  C   UNL     1      -9.300   8.207  68.745  1.00  0.00    -0.143 C  
HETATM   21  C   UNL     1      -9.807   6.994  69.030  1.00  0.00    -0.154 C  
HETATM   22  C   UNL     1      -9.165   5.663  68.724  1.00  0.00    -0.133 C  
HETATM   23  C   UNL     1      -9.632   5.106  67.381  1.00  0.00    -0.154 C  
HETATM   24  C   UNL     1      -9.456   4.673  69.850  1.00  0.00    -0.237 C  
ENDBRANCH  19  20
ENDBRANCH  18  19
ENDBRANCH  17  18
ENDBRANCH  16  17
ENDBRANCH  13  16
ENDBRANCH  11  12
ENDBRANCH   9  11
ENDBRANCH   2   3
TORSDOF 8
ENDMDL
MODEL      259
REMARK 921   NORMALIZED FREE ENERGY PREDICTED BY IDOCK:   -3.89 KCAL/MOL
REMARK 922        TOTAL FREE ENERGY PREDICTED BY IDOCK:   -6.92 KCAL/MOL
REMARK 923 INTER-LIGAND FREE ENERGY PREDICTED BY IDOCK:   -5.93 KCAL/MOL
REMARK 924 INTRA-LIGAND FREE ENERGY PREDICTED BY IDOCK:   -0.98 KCAL/MOL
REMARK 927      BINDING AFFINITY PREDICTED BY RF-SCORE:    0.00 PKD
ROOT
HETATM    1  C   UNL     1     -10.884   6.955  66.991  1.00  0.00    -0.366 C  
HETATM    2  O   UNL     1      -9.544   7.432  67.128  1.00  0.00    -0.142 OA 
ENDROOT
BRANCH   2   3
HETATM    3  C   UNL     1      -9.377   8.743  66.768  1.00  0.00    -0.179 A  
HETATM    4  C   UNL     1      -8.806   9.585  67.723  1.00  0.00    -0.119 A  
HETATM    5  O   UNL     1      -8.445   9.095  68.948  1.00  0.00    -0.125 OA 
HETATM    6  C   UNL     1      -8.621  10.943  67.475  1.00  0.00    -0.127 A  
HETATM    7  C   UNL     1      -9.022  11.470  66.247  1.00  0.00    -0.199 A  
HETATM    8  H   UNL     1      -8.056   9.669  69.597  1.00  0.00     0.000 HD 
HETATM    9  C   UNL     1      -9.577  10.642  65.263  1.00  0.00    -0.293 A  
HETATM   10  C   UNL     1      -9.729   9.269  65.525  1.00  0.00    -0.247 A  
BRANCH   9  11
HETATM   11  C   UNL     1     -10.094  11.200  63.964  1.00  0.00    -0.336 C  
BRANCH  11  12
HETATM   12  N   UNL     1     -10.468  12.578  64.084  1.00  0.00    -0.377 N  
HETATM   13  C   UNL     1     -11.713  12.952  64.532  1.00  0.00    -0.365 C  
HETATM   14  H   UNL     1      -9.793  13.300  63.830  1.00  0.00     0.000 HD 
HETATM   15  O   UNL     1     -12.582  12.171  64.873  1.00  0.00    -0.500 OA 
BRANCH  13  16
HETATM   16  C   UNL     1     -11.914  14.443  64.473  1.00  0.00    -0.487 C  
BRANCH  16  17
HETATM   17  C   UNL     1     -10.856  15.226  65.238  1.00  0.00    -0.417 C  
BRANCH  17  18
HETATM   18  C   UNL     1     -10.656  14.736  66.680  1.00  0.00    -0.299 C  
BRANCH  18  19
HETATM   19  C   UNL     1     -10.173  15.790  67.684  1.00  0.00    -0.266 C  
BRANCH  19  20
HETATM   20  C   UNL     1      -9.117  15.305  68.641  1.00  0.00    -0.193 C  
HETATM   21  C   UNL     1      -7.898  15.845  68.821  1.00  0.00    -0.185 C  
HETATM   22  C   UNL     1      -7.394  17.132  68.217  1.00  0.00    -0.214 C  
HETATM   23  C   UNL     1      -6.658  16.890  66.901  1.00  0.00    -0.249 C  
HETATM   24  C   UNL     1      -6.492  17.856  69.214  1.00  0.00    -0.248 C  
ENDBRANCH  19  20
ENDBRANCH  18  19
ENDBRANCH  17  18
ENDBRANCH  16  17
ENDBRANCH  13  16
ENDBRANCH  11  12
ENDBRANCH   9  11
ENDBRANCH   2   3
TORSDOF 8
ENDMDL
MODEL      260
REMARK 921   NORMALIZED FREE ENERGY PREDICTED BY IDOCK:   -3.88 KCAL/MOL
REMARK 922        TOTAL FREE ENERGY PREDICTED BY IDOCK:   -6.92 KCAL/MOL
REMARK 923 INTER-LIGAND FREE ENERGY PREDICTED BY IDOCK:   -5.76 KCAL/MOL
REMARK 924 INTRA-LIGAND FREE ENERGY PREDICTED BY IDOCK:   -1.15 KCAL/MOL
REMARK 927      BINDING AFFINITY PREDICTED BY RF-SCORE:    0.00 PKD
ROOT
HETATM    1  C   UNL     1      -7.499   9.957  62.975  1.00  0.00    -0.130 C  
HETATM    2  O   UNL     1      -8.737   9.292  63.234  1.00  0.00    -0.213 OA 
ENDROOT
BRANCH   2   3
HETATM    3  C   UNL     1      -9.075   9.234  64.560  1.00  0.00    -0.089 A  
HETATM    4  C   UNL     1     -10.004  10.173  65.010  1.00  0.00    -0.305 A  
HETATM    5  O   UNL     1     -10.530  11.092  64.145  1.00  0.00    -0.333 OA 
HETATM    6  C   UNL     1     -10.393  10.226  66.346  1.00  0.00    -0.262 A  
HETATM    7  C   UNL     1      -9.836   9.324  67.252  1.00  0.00    -0.236 A  
HETATM    8  H   UNL     1     -11.163  11.731  64.451  1.00  0.00     0.000 HD 
HETATM    9  C   UNL     1      -8.918   8.357  66.823  1.00  0.00    -0.172 A  
HETATM   10  C   UNL     1      -8.560   8.305  65.464  1.00  0.00    -0.183 A  
BRANCH   9  11
HETATM   11  C   UNL     1      -8.240   7.428  67.794  1.00  0.00    -0.119 C  
BRANCH  11  12
HETATM   12  N   UNL     1      -9.133   6.983  68.821  1.00  0.00    -0.134 N  
HETATM   13  C   UNL     1      -9.803   5.785  68.726  1.00  0.00    -0.139 C  
HETATM   14  H   UNL     1      -9.276   7.568  69.644  1.00  0.00     0.000 HD 
HETATM   15  O   UNL     1      -9.690   5.009  67.796  1.00  0.00    -0.140 OA 
BRANCH  13  16
HETATM   16  C   UNL     1     -10.762   5.579  69.867  1.00  0.00    -0.358 C  
BRANCH  16  17
HETATM   17  C   UNL     1     -11.406   6.869  70.357  1.00  0.00    -0.376 C  
BRANCH  17  18
HETATM   18  C   UNL     1     -12.525   6.642  71.384  1.00  0.00    -0.306 C  
BRANCH  18  19
HETATM   19  C   UNL     1     -13.640   7.696  71.403  1.00  0.00    -0.368 C  
BRANCH  19  20
HETATM   20  C   UNL     1     -13.446   8.792  72.417  1.00  0.00    -0.446 C  
HETATM   21  C   UNL     1     -12.928  10.011  72.182  1.00  0.00    -0.460 C  
HETATM   22  C   UNL     1     -12.577  10.587  70.832  1.00  0.00    -0.493 C  
HETATM   23  C   UNL     1     -11.116  10.331  70.471  1.00  0.00    -0.381 C  
HETATM   24  C   UNL     1     -12.884  12.083  70.808  1.00  0.00    -0.118 C  
ENDBRANCH  19  20
ENDBRANCH  18  19
ENDBRANCH  17  18
ENDBRANCH  16  17
ENDBRANCH  13  16
ENDBRANCH  11  12
ENDBRANCH   9  11
ENDBRANCH   2   3
TORSDOF 8
ENDMDL
MODEL      261
REMARK 921   NORMALIZED FREE ENERGY PREDICTED BY IDOCK:   -3.88 KCAL/MOL
REMARK 922        TOTAL FREE ENERGY PREDICTED BY IDOCK:   -6.90 KCAL/MOL
REMARK 923 INTER-LIGAND FREE ENERGY PREDICTED BY IDOCK:   -6.10 KCAL/MOL
REMARK 924 INTRA-LIGAND FREE ENERGY PREDICTED BY IDOCK:   -0.81 KCAL/MOL
REMARK 927      BINDING AFFINITY PREDICTED BY RF-SCORE:    0.00 PKD
ROOT
HETATM    1  C   UNL     1     -10.838  16.404  67.425  1.00  0.00    -0.219 C  
HETATM    2  O   UNL     1     -10.583  17.555  68.233  1.00  0.00    -0.372 OA 
ENDROOT
BRANCH   2   3
HETATM    3  C   UNL     1      -9.256  17.772  68.496  1.00  0.00    -0.281 A  
HETATM    4  C   UNL     1      -8.853  19.101  68.622  1.00  0.00    -0.365 A  
HETATM    5  O   UNL     1      -9.761  20.114  68.483  1.00  0.00    -0.269 OA 
HETATM    6  C   UNL     1      -7.522  19.437  68.856  1.00  0.00    -0.399 A  
HETATM    7  C   UNL     1      -6.573  18.419  68.959  1.00  0.00    -0.270 A  
HETATM    8  H   UNL     1      -9.487  21.019  68.570  1.00  0.00     0.000 HD 
HETATM    9  C   UNL     1      -6.955  17.075  68.858  1.00  0.00    -0.219 A  
HETATM   10  C   UNL     1      -8.309  16.759  68.649  1.00  0.00    -0.252 A  
BRANCH   9  11
HETATM   11  C   UNL     1      -5.940  15.964  68.881  1.00  0.00    -0.113 C  
BRANCH  11  12
HETATM   12  N   UNL     1      -6.306  14.886  68.011  1.00  0.00    -0.138 N  
HETATM   13  C   UNL     1      -6.141  13.572  68.379  1.00  0.00    -0.094 C  
HETATM   14  H   UNL     1      -6.699  15.099  67.094  1.00  0.00     0.000 HD 
HETATM   15  O   UNL     1      -5.696  13.212  69.454  1.00  0.00    -0.079 OA 
BRANCH  13  16
HETATM   16  C   UNL     1      -6.493  12.621  67.267  1.00  0.00    -0.102 C  
BRANCH  16  17
HETATM   17  C   UNL     1      -7.733  11.786  67.555  1.00  0.00    -0.143 C  
BRANCH  17  18
HETATM   18  C   UNL     1      -8.886  12.596  68.166  1.00  0.00    -0.194 C  
BRANCH  18  19
HETATM   19  C   UNL     1      -9.851  13.245  67.165  1.00  0.00    -0.237 C  
BRANCH  19  20
HETATM   20  C   UNL     1     -11.221  12.622  67.124  1.00  0.00    -0.348 C  
HETATM   21  C   UNL     1     -12.029  12.548  66.051  1.00  0.00    -0.456 C  
HETATM   22  C   UNL     1     -11.673  12.934  64.636  1.00  0.00    -0.407 C  
HETATM   23  C   UNL     1     -12.055  14.381  64.332  1.00  0.00    -0.491 C  
HETATM   24  C   UNL     1     -12.344  11.980  63.651  1.00  0.00    -0.648 C  
ENDBRANCH  19  20
ENDBRANCH  18  19
ENDBRANCH  17  18
ENDBRANCH  16  17
ENDBRANCH  13  16
ENDBRANCH  11  12
ENDBRANCH   9  11
ENDBRANCH   2   3
TORSDOF 8
ENDMDL
MODEL      262
REMARK 921   NORMALIZED FREE ENERGY PREDICTED BY IDOCK:   -3.88 KCAL/MOL
REMARK 922        TOTAL FREE ENERGY PREDICTED BY IDOCK:   -6.90 KCAL/MOL
REMARK 923 INTER-LIGAND FREE ENERGY PREDICTED BY IDOCK:   -5.66 KCAL/MOL
REMARK 924 INTRA-LIGAND FREE ENERGY PREDICTED BY IDOCK:   -1.24 KCAL/MOL
REMARK 927      BINDING AFFINITY PREDICTED BY RF-SCORE:    0.00 PKD
ROOT
HETATM    1  C   UNL     1     -10.424  19.682  66.583  1.00  0.00    -0.497 C  
HETATM    2  O   UNL     1      -9.204  19.516  65.859  1.00  0.00    -0.409 OA 
ENDROOT
BRANCH   2   3
HETATM    3  C   UNL     1      -8.331  18.626  66.427  1.00  0.00    -0.276 A  
HETATM    4  C   UNL     1      -7.061  18.545  65.856  1.00  0.00    -0.252 A  
HETATM    5  O   UNL     1      -6.735  19.326  64.782  1.00  0.00    -0.434 OA 
HETATM    6  C   UNL     1      -6.107  17.649  66.334  1.00  0.00    -0.250 A  
HETATM    7  C   UNL     1      -6.435  16.814  67.402  1.00  0.00    -0.192 A  
HETATM    8  H   UNL     1      -5.870  19.271  64.394  1.00  0.00     0.000 HD 
HETATM    9  C   UNL     1      -7.695  16.891  68.008  1.00  0.00    -0.179 A  
HETATM   10  C   UNL     1      -8.633  17.822  67.527  1.00  0.00    -0.228 A  
BRANCH   9  11
HETATM   11  C   UNL     1      -8.102  15.944  69.105  1.00  0.00    -0.239 C  
BRANCH  11  12
HETATM   12  N   UNL     1      -7.964  14.574  68.708  1.00  0.00    -0.141 N  
HETATM   13  C   UNL     1      -6.936  13.788  69.174  1.00  0.00    -0.082 C  
HETATM   14  H   UNL     1      -8.645  14.172  68.065  1.00  0.00     0.000 HD 
HETATM   15  O   UNL     1      -6.082  14.167  69.954  1.00  0.00    -0.121 OA 
BRANCH  13  16
HETATM   16  C   UNL     1      -6.933  12.423  68.540  1.00  0.00    -0.092 C  
BRANCH  16  17
HETATM   17  C   UNL     1      -7.748  12.351  67.256  1.00  0.00    -0.158 C  
BRANCH  17  18
HETATM   18  C   UNL     1      -8.872  11.304  67.305  1.00  0.00    -0.150 C  
BRANCH  18  19
HETATM   19  C   UNL     1      -9.831  11.407  68.498  1.00  0.00    -0.200 C  
BRANCH  19  20
HETATM   20  C   UNL     1     -11.291  11.342  68.134  1.00  0.00    -0.372 C  
HETATM   21  C   UNL     1     -12.024  12.338  67.606  1.00  0.00    -0.218 C  
HETATM   22  C   UNL     1     -11.506  13.672  67.128  1.00  0.00    -0.367 C  
HETATM   23  C   UNL     1     -11.577  14.732  68.225  1.00  0.00    -0.348 C  
HETATM   24  C   UNL     1     -12.284  14.121  65.893  1.00  0.00    -0.458 C  
ENDBRANCH  19  20
ENDBRANCH  18  19
ENDBRANCH  17  18
ENDBRANCH  16  17
ENDBRANCH  13  16
ENDBRANCH  11  12
ENDBRANCH   9  11
ENDBRANCH   2   3
TORSDOF 8
ENDMDL
MODEL      263
REMARK 921   NORMALIZED FREE ENERGY PREDICTED BY IDOCK:   -3.87 KCAL/MOL
REMARK 922        TOTAL FREE ENERGY PREDICTED BY IDOCK:   -6.90 KCAL/MOL
REMARK 923 INTER-LIGAND FREE ENERGY PREDICTED BY IDOCK:   -6.19 KCAL/MOL
REMARK 924 INTRA-LIGAND FREE ENERGY PREDICTED BY IDOCK:   -0.71 KCAL/MOL
REMARK 927      BINDING AFFINITY PREDICTED BY RF-SCORE:    0.00 PKD
ROOT
HETATM    1  C   UNL     1     -13.889   9.551  71.889  1.00  0.00    -0.263 C  
HETATM    2  O   UNL     1     -13.005  10.594  72.305  1.00  0.00    -0.353 OA 
ENDROOT
BRANCH   2   3
HETATM    3  C   UNL     1     -12.546  11.380  71.281  1.00  0.00    -0.374 A  
HETATM    4  C   UNL     1     -12.702  12.758  71.434  1.00  0.00    -0.255 A  
HETATM    5  O   UNL     1     -13.290  13.266  72.559  1.00  0.00    -0.544 OA 
HETATM    6  C   UNL     1     -12.302  13.648  70.440  1.00  0.00    -0.415 A  
HETATM    7  C   UNL     1     -11.739  13.146  69.266  1.00  0.00    -0.376 A  
HETATM    8  H   UNL     1     -13.395  14.204  72.663  1.00  0.00     0.000 HD 
HETATM    9  C   UNL     1     -11.551  11.768  69.097  1.00  0.00    -0.372 A  
HETATM   10  C   UNL     1     -11.937  10.891  70.125  1.00  0.00    -0.435 A  
BRANCH   9  11
HETATM   11  C   UNL     1     -11.025  11.197  67.808  1.00  0.00    -0.262 C  
BRANCH  11  12
HETATM   12  N   UNL     1     -11.043   9.764  67.810  1.00  0.00    -0.486 N  
HETATM   13  C   UNL     1     -10.416   9.032  66.830  1.00  0.00    -0.200 C  
HETATM   14  H   UNL     1     -11.535   9.275  68.558  1.00  0.00     0.000 HD 
HETATM   15  O   UNL     1      -9.791   9.519  65.905  1.00  0.00    -0.267 OA 
BRANCH  13  16
HETATM   16  C   UNL     1     -10.660   7.555  66.979  1.00  0.00    -0.409 C  
BRANCH  16  17
HETATM   17  C   UNL     1      -9.975   6.949  68.196  1.00  0.00    -0.170 C  
BRANCH  17  18
HETATM   18  C   UNL     1     -10.629   5.646  68.680  1.00  0.00    -0.268 C  
BRANCH  18  19
HETATM   19  C   UNL     1     -10.158   5.127  70.045  1.00  0.00    -0.345 C  
BRANCH  19  20
HETATM   20  C   UNL     1      -8.932   4.254  69.993  1.00  0.00    -0.152 C  
HETATM   21  C   UNL     1      -7.659   4.662  70.141  1.00  0.00    -0.054 C  
HETATM   22  C   UNL     1      -7.204   6.043  70.541  1.00  0.00    -0.083 C  
HETATM   23  C   UNL     1      -6.927   6.922  69.323  1.00  0.00    -0.074 C  
HETATM   24  C   UNL     1      -5.965   5.947  71.429  1.00  0.00    -0.030 C  
ENDBRANCH  19  20
ENDBRANCH  18  19
ENDBRANCH  17  18
ENDBRANCH  16  17
ENDBRANCH  13  16
ENDBRANCH  11  12
ENDBRANCH   9  11
ENDBRANCH   2   3
TORSDOF 8
ENDMDL
MODEL      264
REMARK 921   NORMALIZED FREE ENERGY PREDICTED BY IDOCK:   -3.87 KCAL/MOL
REMARK 922        TOTAL FREE ENERGY PREDICTED BY IDOCK:   -6.90 KCAL/MOL
REMARK 923 INTER-LIGAND FREE ENERGY PREDICTED BY IDOCK:   -5.90 KCAL/MOL
REMARK 924 INTRA-LIGAND FREE ENERGY PREDICTED BY IDOCK:   -1.00 KCAL/MOL
REMARK 927      BINDING AFFINITY PREDICTED BY RF-SCORE:    0.00 PKD
ROOT
HETATM    1  C   UNL     1      -9.683  16.289  67.867  1.00  0.00    -0.233 C  
HETATM    2  O   UNL     1      -9.528  16.307  66.447  1.00  0.00    -0.254 OA 
ENDROOT
BRANCH   2   3
HETATM    3  C   UNL     1     -10.330  15.415  65.785  1.00  0.00    -0.361 A  
HETATM    4  C   UNL     1     -11.167  15.939  64.800  1.00  0.00    -0.355 A  
HETATM    5  O   UNL     1     -11.166  17.281  64.535  1.00  0.00    -1.083 OA 
HETATM    6  C   UNL     1     -12.048  15.128  64.089  1.00  0.00    -0.195 A  
HETATM    7  C   UNL     1     -12.094  13.763  64.375  1.00  0.00    -0.474 A  
HETATM    8  H   UNL     1     -11.736  17.638  63.864  1.00  0.00     0.000 HD 
HETATM    9  C   UNL     1     -11.248  13.208  65.343  1.00  0.00    -0.315 A  
HETATM   10  C   UNL     1     -10.348  14.042  66.028  1.00  0.00    -0.312 A  
BRANCH   9  11
HETATM   11  C   UNL     1     -11.338  11.755  65.728  1.00  0.00    -0.250 C  
BRANCH  11  12
HETATM   12  N   UNL     1     -10.443  11.429  66.799  1.00  0.00    -0.234 N  
HETATM   13  C   UNL     1     -10.888  11.274  68.090  1.00  0.00    -0.217 C  
HETATM   14  H   UNL     1      -9.450  11.309  66.597  1.00  0.00     0.000 HD 
HETATM   15  O   UNL     1     -12.052  11.381  68.432  1.00  0.00    -0.575 OA 
BRANCH  13  16
HETATM   16  C   UNL     1      -9.758  11.041  69.057  1.00  0.00    -0.151 C  
BRANCH  16  17
HETATM   17  C   UNL     1     -10.127  10.110  70.204  1.00  0.00    -0.197 C  
BRANCH  17  18
HETATM   18  C   UNL     1     -10.453   8.680  69.750  1.00  0.00    -0.220 C  
BRANCH  18  19
HETATM   19  C   UNL     1      -9.369   7.977  68.922  1.00  0.00    -0.150 C  
BRANCH  19  20
HETATM   20  C   UNL     1      -8.317   7.272  69.737  1.00  0.00    -0.135 C  
HETATM   21  C   UNL     1      -7.048   7.678  69.920  1.00  0.00    -0.063 C  
HETATM   22  C   UNL     1      -6.458   8.994  69.476  1.00  0.00    -0.043 C  
HETATM   23  C   UNL     1      -5.809   8.886  68.098  1.00  0.00    -0.042 C  
HETATM   24  C   UNL     1      -5.449   9.488  70.510  1.00  0.00    -0.042 C  
ENDBRANCH  19  20
ENDBRANCH  18  19
ENDBRANCH  17  18
ENDBRANCH  16  17
ENDBRANCH  13  16
ENDBRANCH  11  12
ENDBRANCH   9  11
ENDBRANCH   2   3
TORSDOF 8
ENDMDL
MODEL      265
REMARK 921   NORMALIZED FREE ENERGY PREDICTED BY IDOCK:   -3.86 KCAL/MOL
REMARK 922        TOTAL FREE ENERGY PREDICTED BY IDOCK:   -6.88 KCAL/MOL
REMARK 923 INTER-LIGAND FREE ENERGY PREDICTED BY IDOCK:   -6.19 KCAL/MOL
REMARK 924 INTRA-LIGAND FREE ENERGY PREDICTED BY IDOCK:   -0.68 KCAL/MOL
REMARK 927      BINDING AFFINITY PREDICTED BY RF-SCORE:    0.00 PKD
ROOT
HETATM    1  C   UNL     1      -9.317  11.101  62.724  1.00  0.00    -0.351 C  
HETATM    2  O   UNL     1      -9.289   9.743  63.169  1.00  0.00    -0.263 OA 
ENDROOT
BRANCH   2   3
HETATM    3  C   UNL     1      -8.518   9.535  64.282  1.00  0.00    -0.184 A  
HETATM    4  C   UNL     1      -8.109   8.224  64.523  1.00  0.00    -0.146 A  
HETATM    5  O   UNL     1      -8.477   7.218  63.672  1.00  0.00    -0.356 OA 
HETATM    6  C   UNL     1      -7.351   7.894  65.644  1.00  0.00    -0.079 A  
HETATM    7  C   UNL     1      -7.001   8.899  66.546  1.00  0.00    -0.080 A  
HETATM    8  H   UNL     1      -8.198   6.325  63.836  1.00  0.00     0.000 HD 
HETATM    9  C   UNL     1      -7.380  10.227  66.316  1.00  0.00    -0.118 A  
HETATM   10  C   UNL     1      -8.121  10.541  65.164  1.00  0.00    -0.112 A  
BRANCH   9  11
HETATM   11  C   UNL     1      -7.087  11.315  67.316  1.00  0.00    -0.114 C  
BRANCH  11  12
HETATM   12  N   UNL     1      -7.573  12.589  66.878  1.00  0.00    -0.384 N  
HETATM   13  C   UNL     1      -8.699  13.159  67.424  1.00  0.00    -0.206 C  
HETATM   14  H   UNL     1      -7.071  13.087  66.142  1.00  0.00     0.000 HD 
HETATM   15  O   UNL     1      -9.359  12.656  68.315  1.00  0.00    -0.209 OA 
BRANCH  13  16
HETATM   16  C   UNL     1      -9.078  14.443  66.735  1.00  0.00    -0.278 C  
BRANCH  16  17
HETATM   17  C   UNL     1      -9.041  15.656  67.655  1.00  0.00    -0.193 C  
BRANCH  17  18
HETATM   18  C   UNL     1     -10.388  16.388  67.754  1.00  0.00    -0.287 C  
BRANCH  18  19
HETATM   19  C   UNL     1     -11.096  16.305  69.113  1.00  0.00    -0.322 C  
BRANCH  19  20
HETATM   20  C   UNL     1     -11.832  15.015  69.358  1.00  0.00    -0.358 C  
HETATM   21  C   UNL     1     -12.513  14.686  70.470  1.00  0.00    -0.408 C  
HETATM   22  C   UNL     1     -12.809  15.596  71.637  1.00  0.00    -0.533 C  
HETATM   23  C   UNL     1     -11.747  15.480  72.729  1.00  0.00    -0.545 C  
HETATM   24  C   UNL     1     -14.195  15.287  72.199  1.00  0.00    -0.667 C  
ENDBRANCH  19  20
ENDBRANCH  18  19
ENDBRANCH  17  18
ENDBRANCH  16  17
ENDBRANCH  13  16
ENDBRANCH  11  12
ENDBRANCH   9  11
ENDBRANCH   2   3
TORSDOF 8
ENDMDL
MODEL      266
REMARK 921   NORMALIZED FREE ENERGY PREDICTED BY IDOCK:   -3.84 KCAL/MOL
REMARK 922        TOTAL FREE ENERGY PREDICTED BY IDOCK:   -6.86 KCAL/MOL
REMARK 923 INTER-LIGAND FREE ENERGY PREDICTED BY IDOCK:   -6.23 KCAL/MOL
REMARK 924 INTRA-LIGAND FREE ENERGY PREDICTED BY IDOCK:   -0.63 KCAL/MOL
REMARK 927      BINDING AFFINITY PREDICTED BY RF-SCORE:    0.00 PKD
ROOT
HETATM    1  C   UNL     1     -10.309  14.734  69.018  1.00  0.00    -0.243 C  
HETATM    2  O   UNL     1     -11.689  14.412  68.842  1.00  0.00    -0.286 OA 
ENDROOT
BRANCH   2   3
HETATM    3  C   UNL     1     -12.252  13.756  69.905  1.00  0.00    -0.321 A  
HETATM    4  C   UNL     1     -12.973  14.535  70.810  1.00  0.00    -0.343 A  
HETATM    5  O   UNL     1     -13.092  15.884  70.618  1.00  0.00    -0.682 OA 
HETATM    6  C   UNL     1     -13.558  13.976  71.944  1.00  0.00    -0.520 A  
HETATM    7  C   UNL     1     -13.411  12.609  72.179  1.00  0.00    -0.561 A  
HETATM    8  H   UNL     1     -13.584  16.414  71.234  1.00  0.00     0.000 HD 
HETATM    9  C   UNL     1     -12.711  11.800  71.274  1.00  0.00    -0.420 A  
HETATM   10  C   UNL     1     -12.153  12.382  70.123  1.00  0.00    -0.366 A  
BRANCH   9  11
HETATM   11  C   UNL     1     -12.468  10.340  71.548  1.00  0.00    -0.422 C  
BRANCH  11  12
HETATM   12  N   UNL     1     -11.952   9.659  70.398  1.00  0.00    -0.444 N  
HETATM   13  C   UNL     1     -10.658   9.196  70.353  1.00  0.00    -0.230 C  
HETATM   14  H   UNL     1     -12.560   9.514  69.592  1.00  0.00     0.000 HD 
HETATM   15  O   UNL     1      -9.859   9.305  71.265  1.00  0.00    -0.289 OA 
BRANCH  13  16
HETATM   16  C   UNL     1     -10.309   8.612  69.010  1.00  0.00    -0.226 C  
BRANCH  16  17
HETATM   17  C   UNL     1     -10.178   7.095  69.027  1.00  0.00    -0.191 C  
BRANCH  17  18
HETATM   18  C   UNL     1      -9.322   6.544  67.876  1.00  0.00    -0.111 C  
BRANCH  18  19
HETATM   19  C   UNL     1      -8.155   7.433  67.425  1.00  0.00    -0.113 C  
BRANCH  19  20
HETATM   20  C   UNL     1      -7.460   6.965  66.175  1.00  0.00    -0.080 C  
HETATM   21  C   UNL     1      -7.311   7.668  65.037  1.00  0.00    -0.073 C  
HETATM   22  C   UNL     1      -7.672   9.118  64.830  1.00  0.00    -0.111 C  
HETATM   23  C   UNL     1      -9.087   9.275  64.276  1.00  0.00    -0.076 C  
HETATM   24  C   UNL     1      -6.655   9.781  63.904  1.00  0.00    -0.120 C  
ENDBRANCH  19  20
ENDBRANCH  18  19
ENDBRANCH  17  18
ENDBRANCH  16  17
ENDBRANCH  13  16
ENDBRANCH  11  12
ENDBRANCH   9  11
ENDBRANCH   2   3
TORSDOF 8
ENDMDL
MODEL      267
REMARK 921   NORMALIZED FREE ENERGY PREDICTED BY IDOCK:   -3.84 KCAL/MOL
REMARK 922        TOTAL FREE ENERGY PREDICTED BY IDOCK:   -6.85 KCAL/MOL
REMARK 923 INTER-LIGAND FREE ENERGY PREDICTED BY IDOCK:   -5.76 KCAL/MOL
REMARK 924 INTRA-LIGAND FREE ENERGY PREDICTED BY IDOCK:   -1.09 KCAL/MOL
REMARK 927      BINDING AFFINITY PREDICTED BY RF-SCORE:    0.00 PKD
ROOT
HETATM    1  C   UNL     1     -12.257  15.336  64.211  1.00  0.00    -0.189 C  
HETATM    2  O   UNL     1     -12.603  13.958  64.062  1.00  0.00    -0.689 OA 
ENDROOT
BRANCH   2   3
HETATM    3  C   UNL     1     -11.648  13.088  64.518  1.00  0.00    -0.360 A  
HETATM    4  C   UNL     1     -11.564  11.856  63.871  1.00  0.00    -0.425 A  
HETATM    5  O   UNL     1     -12.409  11.560  62.837  1.00  0.00    -0.958 OA 
HETATM    6  C   UNL     1     -10.652  10.884  64.275  1.00  0.00    -0.336 A  
HETATM    7  C   UNL     1      -9.809  11.151  65.355  1.00  0.00    -0.289 A  
HETATM    8  H   UNL     1     -12.351  10.721  62.396  1.00  0.00     0.000 HD 
HETATM    9  C   UNL     1      -9.858  12.389  66.008  1.00  0.00    -0.268 A  
HETATM   10  C   UNL     1     -10.768  13.364  65.565  1.00  0.00    -0.301 A  
BRANCH   9  11
HETATM   11  C   UNL     1      -9.020  12.670  67.227  1.00  0.00    -0.194 C  
BRANCH  11  12
HETATM   12  N   UNL     1      -8.451  11.474  67.773  1.00  0.00    -0.132 N  
HETATM   13  C   UNL     1      -7.424  11.514  68.687  1.00  0.00    -0.116 C  
HETATM   14  H   UNL     1      -8.817  10.569  67.476  1.00  0.00     0.000 HD 
HETATM   15  O   UNL     1      -6.929  12.540  69.116  1.00  0.00    -0.094 OA 
BRANCH  13  16
HETATM   16  C   UNL     1      -6.919  10.140  69.036  1.00  0.00    -0.058 C  
BRANCH  16  17
HETATM   17  C   UNL     1      -7.689   9.021  68.348  1.00  0.00    -0.098 C  
BRANCH  17  18
HETATM   18  C   UNL     1      -8.540   8.182  69.314  1.00  0.00    -0.135 C  
BRANCH  18  19
HETATM   19  C   UNL     1      -9.977   7.892  68.859  1.00  0.00    -0.194 C  
BRANCH  19  20
HETATM   20  C   UNL     1     -10.119   7.592  67.391  1.00  0.00    -0.287 C  
HETATM   21  C   UNL     1      -9.724   6.468  66.767  1.00  0.00    -0.208 C  
HETATM   22  C   UNL     1      -9.196   5.218  67.428  1.00  0.00    -0.116 C  
HETATM   23  C   UNL     1      -7.672   5.230  67.525  1.00  0.00    -0.096 C  
HETATM   24  C   UNL     1      -9.679   3.984  66.668  1.00  0.00    -0.215 C  
ENDBRANCH  19  20
ENDBRANCH  18  19
ENDBRANCH  17  18
ENDBRANCH  16  17
ENDBRANCH  13  16
ENDBRANCH  11  12
ENDBRANCH   9  11
ENDBRANCH   2   3
TORSDOF 8
ENDMDL
MODEL      268
REMARK 921   NORMALIZED FREE ENERGY PREDICTED BY IDOCK:   -3.84 KCAL/MOL
REMARK 922        TOTAL FREE ENERGY PREDICTED BY IDOCK:   -6.85 KCAL/MOL
REMARK 923 INTER-LIGAND FREE ENERGY PREDICTED BY IDOCK:   -6.11 KCAL/MOL
REMARK 924 INTRA-LIGAND FREE ENERGY PREDICTED BY IDOCK:   -0.74 KCAL/MOL
REMARK 927      BINDING AFFINITY PREDICTED BY RF-SCORE:    0.00 PKD
ROOT
HETATM    1  C   UNL     1     -12.256  15.336  64.211  1.00  0.00    -0.189 C  
HETATM    2  O   UNL     1     -12.595  13.956  64.067  1.00  0.00    -0.689 OA 
ENDROOT
BRANCH   2   3
HETATM    3  C   UNL     1     -11.635  13.092  64.524  1.00  0.00    -0.364 A  
HETATM    4  C   UNL     1     -11.547  11.858  63.881  1.00  0.00    -0.425 A  
HETATM    5  O   UNL     1     -12.393  11.554  62.850  1.00  0.00    -0.958 OA 
HETATM    6  C   UNL     1     -10.629  10.892  64.287  1.00  0.00    -0.336 A  
HETATM    7  C   UNL     1      -9.786  11.167  65.364  1.00  0.00    -0.275 A  
HETATM    8  H   UNL     1     -12.333  10.714  62.412  1.00  0.00     0.000 HD 
HETATM    9  C   UNL     1      -9.838  12.407  66.012  1.00  0.00    -0.268 A  
HETATM   10  C   UNL     1     -10.754  13.376  65.568  1.00  0.00    -0.301 A  
BRANCH   9  11
HETATM   11  C   UNL     1      -8.999  12.696  67.228  1.00  0.00    -0.194 C  
BRANCH  11  12
HETATM   12  N   UNL     1      -8.419  11.505  67.774  1.00  0.00    -0.132 N  
HETATM   13  C   UNL     1      -7.391  11.555  68.685  1.00  0.00    -0.106 C  
HETATM   14  H   UNL     1      -8.779  10.597  67.480  1.00  0.00     0.000 HD 
HETATM   15  O   UNL     1      -6.901  12.585  69.111  1.00  0.00    -0.103 OA 
BRANCH  13  16
HETATM   16  C   UNL     1      -6.875  10.185  69.035  1.00  0.00    -0.056 C  
BRANCH  16  17
HETATM   17  C   UNL     1      -7.637   9.059  68.352  1.00  0.00    -0.090 C  
BRANCH  17  18
HETATM   18  C   UNL     1      -8.479   8.215  69.321  1.00  0.00    -0.134 C  
BRANCH  18  19
HETATM   19  C   UNL     1      -9.914   7.911  68.871  1.00  0.00    -0.194 C  
BRANCH  19  20
HETATM   20  C   UNL     1     -10.340   6.480  69.063  1.00  0.00    -0.226 C  
HETATM   21  C   UNL     1     -10.608   5.881  70.237  1.00  0.00    -0.354 C  
HETATM   22  C   UNL     1     -10.687   6.554  71.585  1.00  0.00    -0.267 C  
HETATM   23  C   UNL     1      -9.349   6.509  72.319  1.00  0.00    -0.137 C  
HETATM   24  C   UNL     1     -11.786   5.907  72.426  1.00  0.00    -0.307 C  
ENDBRANCH  19  20
ENDBRANCH  18  19
ENDBRANCH  17  18
ENDBRANCH  16  17
ENDBRANCH  13  16
ENDBRANCH  11  12
ENDBRANCH   9  11
ENDBRANCH   2   3
TORSDOF 8
ENDMDL
MODEL      269
REMARK 921   NORMALIZED FREE ENERGY PREDICTED BY IDOCK:   -3.84 KCAL/MOL
REMARK 922        TOTAL FREE ENERGY PREDICTED BY IDOCK:   -6.85 KCAL/MOL
REMARK 923 INTER-LIGAND FREE ENERGY PREDICTED BY IDOCK:   -6.34 KCAL/MOL
REMARK 924 INTRA-LIGAND FREE ENERGY PREDICTED BY IDOCK:   -0.51 KCAL/MOL
REMARK 927      BINDING AFFINITY PREDICTED BY RF-SCORE:    0.00 PKD
ROOT
HETATM    1  C   UNL     1      -9.524   6.194  72.540  1.00  0.00    -0.143 C  
HETATM    2  O   UNL     1     -10.159   7.378  73.026  1.00  0.00    -0.218 OA 
ENDROOT
BRANCH   2   3
HETATM    3  C   UNL     1     -10.514   8.267  72.046  1.00  0.00    -0.280 A  
HETATM    4  C   UNL     1     -11.805   8.791  72.115  1.00  0.00    -0.366 A  
HETATM    5  O   UNL     1     -12.650   8.415  73.122  1.00  0.00    -0.643 OA 
HETATM    6  C   UNL     1     -12.281   9.676  71.151  1.00  0.00    -0.437 A  
HETATM    7  C   UNL     1     -11.448  10.039  70.092  1.00  0.00    -0.344 A  
HETATM    8  H   UNL     1     -13.529   8.773  73.170  1.00  0.00     0.000 HD 
HETATM    9  C   UNL     1     -10.141   9.544  70.011  1.00  0.00    -0.279 A  
HETATM   10  C   UNL     1      -9.672   8.674  71.011  1.00  0.00    -0.266 A  
BRANCH   9  11
HETATM   11  C   UNL     1      -9.252   9.854  68.836  1.00  0.00    -0.160 C  
BRANCH  11  12
HETATM   12  N   UNL     1      -8.573  11.106  68.993  1.00  0.00    -0.352 N  
HETATM   13  C   UNL     1      -8.674  12.104  68.053  1.00  0.00    -0.180 C  
HETATM   14  H   UNL     1      -8.001  11.260  69.823  1.00  0.00     0.000 HD 
HETATM   15  O   UNL     1      -9.342  12.026  67.038  1.00  0.00    -0.182 OA 
BRANCH  13  16
HETATM   16  C   UNL     1      -7.793  13.281  68.377  1.00  0.00    -0.137 C  
BRANCH  16  17
HETATM   17  C   UNL     1      -8.395  14.618  67.966  1.00  0.00    -0.146 C  
BRANCH  17  18
HETATM   18  C   UNL     1      -8.194  15.725  69.011  1.00  0.00    -0.234 C  
BRANCH  18  19
HETATM   19  C   UNL     1      -8.565  17.145  68.562  1.00  0.00    -0.258 C  
BRANCH  19  20
HETATM   20  C   UNL     1     -10.003  17.313  68.148  1.00  0.00    -0.303 C  
HETATM   21  C   UNL     1     -10.541  18.401  67.569  1.00  0.00    -0.447 C  
HETATM   22  C   UNL     1      -9.791  19.614  67.075  1.00  0.00    -0.491 C  
HETATM   23  C   UNL     1      -9.716  20.705  68.140  1.00  0.00    -0.086 C  
HETATM   24  C   UNL     1     -10.443  20.147  65.802  1.00  0.00    -0.385 C  
ENDBRANCH  19  20
ENDBRANCH  18  19
ENDBRANCH  17  18
ENDBRANCH  16  17
ENDBRANCH  13  16
ENDBRANCH  11  12
ENDBRANCH   9  11
ENDBRANCH   2   3
TORSDOF 8
ENDMDL
MODEL      270
REMARK 921   NORMALIZED FREE ENERGY PREDICTED BY IDOCK:   -3.84 KCAL/MOL
REMARK 922        TOTAL FREE ENERGY PREDICTED BY IDOCK:   -6.85 KCAL/MOL
REMARK 923 INTER-LIGAND FREE ENERGY PREDICTED BY IDOCK:   -5.92 KCAL/MOL
REMARK 924 INTRA-LIGAND FREE ENERGY PREDICTED BY IDOCK:   -0.93 KCAL/MOL
REMARK 927      BINDING AFFINITY PREDICTED BY RF-SCORE:    0.00 PKD
ROOT
HETATM    1  C   UNL     1      -5.789  10.903  68.091  1.00  0.00    -0.046 C  
HETATM    2  O   UNL     1      -6.397  10.827  66.801  1.00  0.00    -0.072 OA 
ENDROOT
BRANCH   2   3
HETATM    3  C   UNL     1      -7.640  10.251  66.800  1.00  0.00    -0.107 A  
HETATM    4  C   UNL     1      -7.813   9.141  65.974  1.00  0.00    -0.102 A  
HETATM    5  O   UNL     1      -6.776   8.677  65.213  1.00  0.00    -0.066 OA 
HETATM    6  C   UNL     1      -9.045   8.498  65.871  1.00  0.00    -0.237 A  
HETATM    7  C   UNL     1     -10.127   8.982  66.607  1.00  0.00    -0.355 A  
HETATM    8  H   UNL     1      -6.894   7.921  64.650  1.00  0.00     0.000 HD 
HETATM    9  C   UNL     1      -9.973  10.081  67.462  1.00  0.00    -0.232 A  
HETATM   10  C   UNL     1      -8.714  10.696  67.571  1.00  0.00    -0.125 A  
BRANCH   9  11
HETATM   11  C   UNL     1     -11.143  10.673  68.202  1.00  0.00    -0.285 C  
BRANCH  11  12
HETATM   12  N   UNL     1     -11.703  11.794  67.508  1.00  0.00    -0.283 N  
HETATM   13  C   UNL     1     -11.567  13.078  67.982  1.00  0.00    -0.343 C  
HETATM   14  H   UNL     1     -12.216  11.636  66.640  1.00  0.00     0.000 HD 
HETATM   15  O   UNL     1     -10.963  13.374  68.996  1.00  0.00    -0.258 OA 
BRANCH  13  16
HETATM   16  C   UNL     1     -12.326  14.075  67.148  1.00  0.00    -0.234 C  
BRANCH  16  17
HETATM   17  C   UNL     1     -12.453  13.669  65.686  1.00  0.00    -0.540 C  
BRANCH  17  18
HETATM   18  C   UNL     1     -11.427  14.354  64.771  1.00  0.00    -0.402 C  
BRANCH  18  19
HETATM   19  C   UNL     1     -11.117  15.822  65.095  1.00  0.00    -0.332 C  
BRANCH  19  20
HETATM   20  C   UNL     1      -9.733  16.064  65.635  1.00  0.00    -0.273 C  
HETATM   21  C   UNL     1      -9.359  17.078  66.437  1.00  0.00    -0.295 C  
HETATM   22  C   UNL     1     -10.272  18.090  67.082  1.00  0.00    -0.366 C  
HETATM   23  C   UNL     1     -10.420  19.346  66.225  1.00  0.00    -0.586 C  
HETATM   24  C   UNL     1      -9.754  18.446  68.474  1.00  0.00    -0.386 C  
ENDBRANCH  19  20
ENDBRANCH  18  19
ENDBRANCH  17  18
ENDBRANCH  16  17
ENDBRANCH  13  16
ENDBRANCH  11  12
ENDBRANCH   9  11
ENDBRANCH   2   3
TORSDOF 8
ENDMDL
MODEL      271
REMARK 921   NORMALIZED FREE ENERGY PREDICTED BY IDOCK:   -3.81 KCAL/MOL
REMARK 922        TOTAL FREE ENERGY PREDICTED BY IDOCK:   -6.81 KCAL/MOL
REMARK 923 INTER-LIGAND FREE ENERGY PREDICTED BY IDOCK:   -6.01 KCAL/MOL
REMARK 924 INTRA-LIGAND FREE ENERGY PREDICTED BY IDOCK:   -0.81 KCAL/MOL
REMARK 927      BINDING AFFINITY PREDICTED BY RF-SCORE:    0.00 PKD
ROOT
HETATM    1  C   UNL     1      -6.639  19.624  69.517  1.00  0.00    -0.348 C  
HETATM    2  O   UNL     1      -7.235  19.490  68.225  1.00  0.00    -0.281 OA 
ENDROOT
BRANCH   2   3
HETATM    3  C   UNL     1      -8.348  18.691  68.202  1.00  0.00    -0.307 A  
HETATM    4  C   UNL     1      -9.563  19.319  67.929  1.00  0.00    -0.333 A  
HETATM    5  O   UNL     1      -9.608  20.667  67.703  1.00  0.00    -0.381 OA 
HETATM    6  C   UNL     1     -10.760  18.608  67.914  1.00  0.00    -0.347 A  
HETATM    7  C   UNL     1     -10.740  17.239  68.183  1.00  0.00    -0.363 A  
HETATM    8  H   UNL     1     -10.436  21.095  67.517  1.00  0.00     0.000 HD 
HETATM    9  C   UNL     1      -9.531  16.580  68.438  1.00  0.00    -0.223 A  
HETATM   10  C   UNL     1      -8.332  17.313  68.421  1.00  0.00    -0.261 A  
BRANCH   9  11
HETATM   11  C   UNL     1      -9.491  15.123  68.814  1.00  0.00    -0.209 C  
BRANCH  11  12
HETATM   12  N   UNL     1      -9.984  14.285  67.762  1.00  0.00    -0.224 N  
HETATM   13  C   UNL     1     -11.161  13.584  67.888  1.00  0.00    -0.265 C  
HETATM   14  H   UNL     1      -9.449  14.206  66.897  1.00  0.00     0.000 HD 
HETATM   15  O   UNL     1     -11.879  13.621  68.870  1.00  0.00    -0.324 OA 
BRANCH  13  16
HETATM   16  C   UNL     1     -11.421  12.692  66.703  1.00  0.00    -0.409 C  
BRANCH  16  17
HETATM   17  C   UNL     1     -11.238  11.212  67.009  1.00  0.00    -0.291 C  
BRANCH  17  18
HETATM   18  C   UNL     1     -10.283  10.501  66.040  1.00  0.00    -0.310 C  
BRANCH  18  19
HETATM   19  C   UNL     1      -8.919  10.101  66.618  1.00  0.00    -0.156 C  
BRANCH  19  20
HETATM   20  C   UNL     1      -8.458  10.947  67.775  1.00  0.00    -0.124 C  
HETATM   21  C   UNL     1      -8.621  10.666  69.080  1.00  0.00    -0.150 C  
HETATM   22  C   UNL     1      -9.160   9.380  69.656  1.00  0.00    -0.190 C  
HETATM   23  C   UNL     1     -10.667   9.452  69.889  1.00  0.00    -0.258 C  
HETATM   24  C   UNL     1      -8.429   9.044  70.954  1.00  0.00    -0.253 C  
ENDBRANCH  19  20
ENDBRANCH  18  19
ENDBRANCH  17  18
ENDBRANCH  16  17
ENDBRANCH  13  16
ENDBRANCH  11  12
ENDBRANCH   9  11
ENDBRANCH   2   3
TORSDOF 8
ENDMDL
MODEL      272
REMARK 921   NORMALIZED FREE ENERGY PREDICTED BY IDOCK:   -3.81 KCAL/MOL
REMARK 922        TOTAL FREE ENERGY PREDICTED BY IDOCK:   -6.80 KCAL/MOL
REMARK 923 INTER-LIGAND FREE ENERGY PREDICTED BY IDOCK:   -5.93 KCAL/MOL
REMARK 924 INTRA-LIGAND FREE ENERGY PREDICTED BY IDOCK:   -0.87 KCAL/MOL
REMARK 927      BINDING AFFINITY PREDICTED BY RF-SCORE:    0.00 PKD
ROOT
HETATM    1  C   UNL     1     -10.372  11.672  64.015  1.00  0.00    -0.357 C  
HETATM    2  O   UNL     1     -10.516  10.489  64.803  1.00  0.00    -0.304 OA 
ENDROOT
BRANCH   2   3
HETATM    3  C   UNL     1     -10.066  10.614  66.090  1.00  0.00    -0.249 A  
HETATM    4  C   UNL     1     -10.178   9.487  66.905  1.00  0.00    -0.249 A  
HETATM    5  O   UNL     1     -10.718   8.331  66.413  1.00  0.00    -0.207 OA 
HETATM    6  C   UNL     1      -9.783   9.514  68.240  1.00  0.00    -0.163 A  
HETATM    7  C   UNL     1      -9.269  10.697  68.772  1.00  0.00    -0.182 A  
HETATM    8  H   UNL     1     -10.794   7.563  66.967  1.00  0.00     0.000 HD 
HETATM    9  C   UNL     1      -9.125  11.836  67.970  1.00  0.00    -0.180 A  
HETATM   10  C   UNL     1      -9.505  11.777  66.618  1.00  0.00    -0.215 A  
BRANCH   9  11
HETATM   11  C   UNL     1      -8.653  13.147  68.540  1.00  0.00    -0.056 C  
BRANCH  11  12
HETATM   12  N   UNL     1      -9.473  14.242  68.115  1.00  0.00    -0.198 N  
HETATM   13  C   UNL     1     -10.678  14.518  68.718  1.00  0.00    -0.253 C  
HETATM   14  H   UNL     1      -9.155  14.832  67.347  1.00  0.00     0.000 HD 
HETATM   15  O   UNL     1     -11.139  13.886  69.651  1.00  0.00    -0.188 OA 
BRANCH  13  16
HETATM   16  C   UNL     1     -11.410  15.643  68.036  1.00  0.00    -0.324 C  
BRANCH  16  17
HETATM   17  C   UNL     1     -10.484  16.641  67.355  1.00  0.00    -0.314 C  
BRANCH  17  18
HETATM   18  C   UNL     1     -10.905  18.104  67.561  1.00  0.00    -0.264 C  
BRANCH  18  19
HETATM   19  C   UNL     1     -10.374  19.105  66.526  1.00  0.00    -0.526 C  
BRANCH  19  20
HETATM   20  C   UNL     1      -9.763  20.348  67.116  1.00  0.00    -0.601 C  
HETATM   21  C   UNL     1      -8.497  20.483  67.550  1.00  0.00    -0.316 C  
HETATM   22  C   UNL     1      -7.388  19.471  67.398  1.00  0.00    -0.261 C  
HETATM   23  C   UNL     1      -7.289  18.553  68.614  1.00  0.00    -0.313 C  
HETATM   24  C   UNL     1      -6.061  20.186  67.153  1.00  0.00    -0.207 C  
ENDBRANCH  19  20
ENDBRANCH  18  19
ENDBRANCH  17  18
ENDBRANCH  16  17
ENDBRANCH  13  16
ENDBRANCH  11  12
ENDBRANCH   9  11
ENDBRANCH   2   3
TORSDOF 8
ENDMDL
MODEL      273
REMARK 921   NORMALIZED FREE ENERGY PREDICTED BY IDOCK:   -3.80 KCAL/MOL
REMARK 922        TOTAL FREE ENERGY PREDICTED BY IDOCK:   -6.79 KCAL/MOL
REMARK 923 INTER-LIGAND FREE ENERGY PREDICTED BY IDOCK:   -5.23 KCAL/MOL
REMARK 924 INTRA-LIGAND FREE ENERGY PREDICTED BY IDOCK:   -1.56 KCAL/MOL
REMARK 927      BINDING AFFINITY PREDICTED BY RF-SCORE:    0.00 PKD
ROOT
HETATM    1  C   UNL     1      -5.198  11.525  68.996  1.00  0.00    -0.043 C  
HETATM    2  O   UNL     1      -5.465  11.689  67.602  1.00  0.00    -0.048 OA 
ENDROOT
BRANCH   2   3
HETATM    3  C   UNL     1      -6.309  10.745  67.079  1.00  0.00    -0.078 A  
HETATM    4  C   UNL     1      -6.177  10.474  65.717  1.00  0.00    -0.132 A  
HETATM    5  O   UNL     1      -5.244  11.136  64.968  1.00  0.00    -0.446 OA 
HETATM    6  C   UNL     1      -7.007   9.557  65.076  1.00  0.00    -0.101 A  
HETATM    7  C   UNL     1      -7.994   8.902  65.814  1.00  0.00    -0.101 A  
HETATM    8  H   UNL     1      -5.153  10.950  64.041  1.00  0.00     0.000 HD 
HETATM    9  C   UNL     1      -8.133   9.140  67.187  1.00  0.00    -0.109 A  
HETATM   10  C   UNL     1      -7.266  10.049  67.818  1.00  0.00    -0.087 A  
BRANCH   9  11
HETATM   11  C   UNL     1      -9.242   8.511  67.987  1.00  0.00    -0.136 C  
BRANCH  11  12
HETATM   12  N   UNL     1     -10.326   9.421  68.207  1.00  0.00    -0.204 N  
HETATM   13  C   UNL     1     -10.584   9.950  69.450  1.00  0.00    -0.229 C  
HETATM   14  H   UNL     1     -10.921   9.684  67.422  1.00  0.00     0.000 HD 
HETATM   15  O   UNL     1      -9.926   9.713  70.446  1.00  0.00    -0.252 OA 
BRANCH  13  16
HETATM   16  C   UNL     1     -11.831  10.793  69.461  1.00  0.00    -0.380 C  
BRANCH  16  17
HETATM   17  C   UNL     1     -11.993  11.649  68.213  1.00  0.00    -0.236 C  
BRANCH  17  18
HETATM   18  C   UNL     1     -11.110  12.906  68.216  1.00  0.00    -0.294 C  
BRANCH  18  19
HETATM   19  C   UNL     1      -9.858  12.846  67.331  1.00  0.00    -0.207 C  
BRANCH  19  20
HETATM   20  C   UNL     1      -9.900  13.748  66.126  1.00  0.00    -0.310 C  
HETATM   21  C   UNL     1     -10.408  13.439  64.920  1.00  0.00    -0.382 C  
HETATM   22  C   UNL     1     -11.175  12.189  64.567  1.00  0.00    -0.385 C  
HETATM   23  C   UNL     1     -10.258  11.098  64.021  1.00  0.00    -0.419 C  
HETATM   24  C   UNL     1     -12.276  12.521  63.562  1.00  0.00    -0.652 C  
ENDBRANCH  19  20
ENDBRANCH  18  19
ENDBRANCH  17  18
ENDBRANCH  16  17
ENDBRANCH  13  16
ENDBRANCH  11  12
ENDBRANCH   9  11
ENDBRANCH   2   3
TORSDOF 8
ENDMDL
MODEL      274
REMARK 921   NORMALIZED FREE ENERGY PREDICTED BY IDOCK:   -3.79 KCAL/MOL
REMARK 922        TOTAL FREE ENERGY PREDICTED BY IDOCK:   -6.78 KCAL/MOL
REMARK 923 INTER-LIGAND FREE ENERGY PREDICTED BY IDOCK:   -6.06 KCAL/MOL
REMARK 924 INTRA-LIGAND FREE ENERGY PREDICTED BY IDOCK:   -0.72 KCAL/MOL
REMARK 927      BINDING AFFINITY PREDICTED BY RF-SCORE:    0.00 PKD
ROOT
HETATM    1  C   UNL     1      -8.678  16.155  68.856  1.00  0.00    -0.248 C  
HETATM    2  O   UNL     1      -8.194  15.837  67.550  1.00  0.00    -0.148 OA 
ENDROOT
BRANCH   2   3
HETATM    3  C   UNL     1      -9.076  15.119  66.785  1.00  0.00    -0.256 A  
HETATM    4  C   UNL     1      -9.781  15.829  65.813  1.00  0.00    -0.337 A  
HETATM    5  O   UNL     1      -9.580  17.173  65.657  1.00  0.00    -0.535 OA 
HETATM    6  C   UNL     1     -10.726  15.206  65.003  1.00  0.00    -0.451 A  
HETATM    7  C   UNL     1     -10.975  13.843  65.175  1.00  0.00    -0.352 A  
HETATM    8  H   UNL     1     -10.060  17.656  64.995  1.00  0.00     0.000 HD 
HETATM    9  C   UNL     1     -10.266  13.104  66.128  1.00  0.00    -0.291 A  
HETATM   10  C   UNL     1      -9.296  13.748  66.916  1.00  0.00    -0.267 A  
BRANCH   9  11
HETATM   11  C   UNL     1     -10.575  11.654  66.391  1.00  0.00    -0.258 C  
BRANCH  11  12
HETATM   12  N   UNL     1     -10.257  11.273  67.735  1.00  0.00    -0.177 N  
HETATM   13  C   UNL     1     -11.236  11.079  68.681  1.00  0.00    -0.263 C  
HETATM   14  H   UNL     1      -9.280  11.143  67.997  1.00  0.00     0.000 HD 
HETATM   15  O   UNL     1     -12.429  11.194  68.467  1.00  0.00    -0.452 OA 
BRANCH  13  16
HETATM   16  C   UNL     1     -10.662  10.791  70.042  1.00  0.00    -0.140 C  
BRANCH  16  17
HETATM   17  C   UNL     1     -11.641  10.092  70.976  1.00  0.00    -0.462 C  
BRANCH  17  18
HETATM   18  C   UNL     1     -11.782   8.588  70.697  1.00  0.00    -0.161 C  
BRANCH  18  19
HETATM   19  C   UNL     1     -10.600   7.713  71.136  1.00  0.00    -0.235 C  
BRANCH  19  20
HETATM   20  C   UNL     1      -9.355   7.881  70.305  1.00  0.00    -0.159 C  
HETATM   21  C   UNL     1      -9.208   7.533  69.014  1.00  0.00    -0.146 C  
HETATM   22  C   UNL     1     -10.296   7.044  68.091  1.00  0.00    -0.226 C  
HETATM   23  C   UNL     1     -10.389   5.520  68.082  1.00  0.00    -0.236 C  
HETATM   24  C   UNL     1     -10.061   7.578  66.680  1.00  0.00    -0.263 C  
ENDBRANCH  19  20
ENDBRANCH  18  19
ENDBRANCH  17  18
ENDBRANCH  16  17
ENDBRANCH  13  16
ENDBRANCH  11  12
ENDBRANCH   9  11
ENDBRANCH   2   3
TORSDOF 8
ENDMDL
MODEL      275
REMARK 921   NORMALIZED FREE ENERGY PREDICTED BY IDOCK:   -3.79 KCAL/MOL
REMARK 922        TOTAL FREE ENERGY PREDICTED BY IDOCK:   -6.77 KCAL/MOL
REMARK 923 INTER-LIGAND FREE ENERGY PREDICTED BY IDOCK:   -5.62 KCAL/MOL
REMARK 924 INTRA-LIGAND FREE ENERGY PREDICTED BY IDOCK:   -1.15 KCAL/MOL
REMARK 927      BINDING AFFINITY PREDICTED BY RF-SCORE:    0.00 PKD
ROOT
HETATM    1  C   UNL     1      -5.200  15.126  71.257  1.00  0.00    -0.110 C  
HETATM    2  O   UNL     1      -5.307  13.706  71.134  1.00  0.00    -0.148 OA 
ENDROOT
BRANCH   2   3
HETATM    3  C   UNL     1      -6.140  13.292  70.128  1.00  0.00    -0.107 A  
HETATM    4  C   UNL     1      -6.238  11.916  69.924  1.00  0.00    -0.139 A  
HETATM    5  O   UNL     1      -5.523  11.050  70.704  1.00  0.00    -0.100 OA 
HETATM    6  C   UNL     1      -7.029  11.388  68.906  1.00  0.00    -0.098 A  
HETATM    7  C   UNL     1      -7.733  12.257  68.073  1.00  0.00    -0.132 A  
HETATM    8  H   UNL     1      -5.589  10.112  70.565  1.00  0.00     0.000 HD 
HETATM    9  C   UNL     1      -7.670  13.642  68.271  1.00  0.00    -0.140 A  
HETATM   10  C   UNL     1      -6.886  14.151  69.321  1.00  0.00    -0.118 A  
BRANCH   9  11
HETATM   11  C   UNL     1      -8.351  14.604  67.334  1.00  0.00    -0.206 C  
BRANCH  11  12
HETATM   12  N   UNL     1      -9.616  14.105  66.882  1.00  0.00    -0.260 N  
HETATM   13  C   UNL     1     -10.804  14.620  67.347  1.00  0.00    -0.298 C  
HETATM   14  H   UNL     1      -9.636  13.349  66.198  1.00  0.00     0.000 HD 
HETATM   15  O   UNL     1     -10.888  15.530  68.150  1.00  0.00    -0.275 OA 
BRANCH  13  16
HETATM   16  C   UNL     1     -11.995  13.870  66.815  1.00  0.00    -0.472 C  
BRANCH  16  17
HETATM   17  C   UNL     1     -11.623  12.605  66.054  1.00  0.00    -0.443 C  
BRANCH  17  18
HETATM   18  C   UNL     1     -11.515  11.363  66.952  1.00  0.00    -0.198 C  
BRANCH  18  19
HETATM   19  C   UNL     1     -11.963  11.548  68.408  1.00  0.00    -0.268 C  
BRANCH  19  20
HETATM   20  C   UNL     1     -11.001  11.006  69.432  1.00  0.00    -0.301 C  
HETATM   21  C   UNL     1     -11.322  10.520  70.644  1.00  0.00    -0.363 C  
HETATM   22  C   UNL     1     -12.715  10.275  71.169  1.00  0.00    -0.502 C  
HETATM   23  C   UNL     1     -13.245  11.477  71.947  1.00  0.00    -0.479 C  
HETATM   24  C   UNL     1     -12.731   9.020  72.038  1.00  0.00    -0.467 C  
ENDBRANCH  19  20
ENDBRANCH  18  19
ENDBRANCH  17  18
ENDBRANCH  16  17
ENDBRANCH  13  16
ENDBRANCH  11  12
ENDBRANCH   9  11
ENDBRANCH   2   3
TORSDOF 8
ENDMDL
MODEL      276
REMARK 921   NORMALIZED FREE ENERGY PREDICTED BY IDOCK:   -3.78 KCAL/MOL
REMARK 922        TOTAL FREE ENERGY PREDICTED BY IDOCK:   -6.77 KCAL/MOL
REMARK 923 INTER-LIGAND FREE ENERGY PREDICTED BY IDOCK:   -5.60 KCAL/MOL
REMARK 924 INTRA-LIGAND FREE ENERGY PREDICTED BY IDOCK:   -1.17 KCAL/MOL
REMARK 927      BINDING AFFINITY PREDICTED BY RF-SCORE:    0.00 PKD
ROOT
HETATM    1  C   UNL     1     -11.327   7.449  72.564  1.00  0.00    -0.313 C  
HETATM    2  O   UNL     1     -10.227   7.999  71.836  1.00  0.00    -0.191 OA 
ENDROOT
BRANCH   2   3
HETATM    3  C   UNL     1     -10.594   8.817  70.800  1.00  0.00    -0.220 A  
HETATM    4  C   UNL     1     -10.366   8.335  69.511  1.00  0.00    -0.219 A  
HETATM    5  O   UNL     1      -9.799   7.104  69.325  1.00  0.00    -0.158 OA 
HETATM    6  C   UNL     1     -10.670   9.098  68.386  1.00  0.00    -0.163 A  
HETATM    7  C   UNL     1     -11.209  10.373  68.557  1.00  0.00    -0.308 A  
HETATM    8  H   UNL     1      -9.644   6.775  68.447  1.00  0.00     0.000 HD 
HETATM    9  C   UNL     1     -11.469  10.872  69.839  1.00  0.00    -0.402 A  
HETATM   10  C   UNL     1     -11.180  10.073  70.959  1.00  0.00    -0.387 A  
BRANCH   9  11
HETATM   11  C   UNL     1     -11.971  12.275  70.052  1.00  0.00    -0.304 C  
BRANCH  11  12
HETATM   12  N   UNL     1     -11.052  13.254  69.553  1.00  0.00    -0.464 N  
HETATM   13  C   UNL     1     -11.343  14.022  68.450  1.00  0.00    -0.291 C  
HETATM   14  H   UNL     1     -10.158  13.385  70.027  1.00  0.00     0.000 HD 
HETATM   15  O   UNL     1     -12.385  13.955  67.824  1.00  0.00    -0.252 OA 
BRANCH  13  16
HETATM   16  C   UNL     1     -10.190  14.901  68.049  1.00  0.00    -0.228 C  
BRANCH  16  17
HETATM   17  C   UNL     1      -9.130  14.173  67.234  1.00  0.00    -0.218 C  
BRANCH  17  18
HETATM   18  C   UNL     1      -9.707  13.371  66.058  1.00  0.00    -0.228 C  
BRANCH  18  19
HETATM   19  C   UNL     1      -9.163  11.946  65.889  1.00  0.00    -0.147 C  
BRANCH  19  20
HETATM   20  C   UNL     1     -10.098  10.999  65.185  1.00  0.00    -0.346 C  
HETATM   21  C   UNL     1      -9.775  10.160  64.184  1.00  0.00    -0.301 C  
HETATM   22  C   UNL     1      -8.386   9.883  63.664  1.00  0.00    -0.164 C  
HETATM   23  C   UNL     1      -8.031  10.791  62.489  1.00  0.00    -0.175 C  
HETATM   24  C   UNL     1      -8.263   8.413  63.267  1.00  0.00    -0.119 C  
ENDBRANCH  19  20
ENDBRANCH  18  19
ENDBRANCH  17  18
ENDBRANCH  16  17
ENDBRANCH  13  16
ENDBRANCH  11  12
ENDBRANCH   9  11
ENDBRANCH   2   3
TORSDOF 8
ENDMDL
MODEL      277
REMARK 921   NORMALIZED FREE ENERGY PREDICTED BY IDOCK:   -3.78 KCAL/MOL
REMARK 922        TOTAL FREE ENERGY PREDICTED BY IDOCK:   -6.77 KCAL/MOL
REMARK 923 INTER-LIGAND FREE ENERGY PREDICTED BY IDOCK:   -6.02 KCAL/MOL
REMARK 924 INTRA-LIGAND FREE ENERGY PREDICTED BY IDOCK:   -0.75 KCAL/MOL
REMARK 927      BINDING AFFINITY PREDICTED BY RF-SCORE:    0.00 PKD
ROOT
HETATM    1  C   UNL     1     -13.128  11.267  71.779  1.00  0.00    -0.422 C  
HETATM    2  O   UNL     1     -13.388  10.077  71.032  1.00  0.00    -0.385 OA 
ENDROOT
BRANCH   2   3
HETATM    3  C   UNL     1     -12.483   9.072  71.247  1.00  0.00    -0.289 A  
HETATM    4  C   UNL     1     -13.000   7.783  71.379  1.00  0.00    -0.288 A  
HETATM    5  O   UNL     1     -14.348   7.568  71.296  1.00  0.00    -0.585 OA 
HETATM    6  C   UNL     1     -12.173   6.692  71.633  1.00  0.00    -0.401 A  
HETATM    7  C   UNL     1     -10.799   6.897  71.763  1.00  0.00    -0.253 A  
HETATM    8  H   UNL     1     -14.700   6.690  71.385  1.00  0.00     0.000 HD 
HETATM    9  C   UNL     1     -10.252   8.177  71.613  1.00  0.00    -0.266 A  
HETATM   10  C   UNL     1     -11.103   9.259  71.329  1.00  0.00    -0.427 A  
BRANCH   9  11
HETATM   11  C   UNL     1      -8.786   8.438  71.831  1.00  0.00    -0.195 C  
BRANCH  11  12
HETATM   12  N   UNL     1      -8.175   9.050  70.689  1.00  0.00    -0.163 N  
HETATM   13  C   UNL     1      -6.812   9.035  70.504  1.00  0.00    -0.061 C  
HETATM   14  H   UNL     1      -8.765   9.509  69.995  1.00  0.00     0.000 HD 
HETATM   15  O   UNL     1      -6.023   8.503  71.262  1.00  0.00    -0.035 OA 
BRANCH  13  16
HETATM   16  C   UNL     1      -6.394   9.829  69.296  1.00  0.00    -0.047 C  
BRANCH  16  17
HETATM   17  C   UNL     1      -7.325  10.993  68.985  1.00  0.00    -0.123 C  
BRANCH  17  18
HETATM   18  C   UNL     1      -8.167  10.780  67.719  1.00  0.00    -0.112 C  
BRANCH  18  19
HETATM   19  C   UNL     1      -9.518  11.507  67.684  1.00  0.00    -0.170 C  
BRANCH  19  20
HETATM   20  C   UNL     1      -9.482  12.864  67.033  1.00  0.00    -0.235 C  
HETATM   21  C   UNL     1     -10.242  13.271  66.001  1.00  0.00    -0.291 C  
HETATM   22  C   UNL     1     -11.390  12.511  65.382  1.00  0.00    -0.363 C  
HETATM   23  C   UNL     1     -10.933  11.662  64.198  1.00  0.00    -0.442 C  
HETATM   24  C   UNL     1     -12.488  13.483  64.957  1.00  0.00    -0.462 C  
ENDBRANCH  19  20
ENDBRANCH  18  19
ENDBRANCH  17  18
ENDBRANCH  16  17
ENDBRANCH  13  16
ENDBRANCH  11  12
ENDBRANCH   9  11
ENDBRANCH   2   3
TORSDOF 8
ENDMDL
MODEL      278
REMARK 921   NORMALIZED FREE ENERGY PREDICTED BY IDOCK:   -3.78 KCAL/MOL
REMARK 922        TOTAL FREE ENERGY PREDICTED BY IDOCK:   -6.76 KCAL/MOL
REMARK 923 INTER-LIGAND FREE ENERGY PREDICTED BY IDOCK:   -5.60 KCAL/MOL
REMARK 924 INTRA-LIGAND FREE ENERGY PREDICTED BY IDOCK:   -1.16 KCAL/MOL
REMARK 927      BINDING AFFINITY PREDICTED BY RF-SCORE:    0.00 PKD
ROOT
HETATM    1  C   UNL     1     -14.371   8.787  72.345  1.00  0.00    -0.332 C  
HETATM    2  O   UNL     1     -12.995   8.467  72.554  1.00  0.00    -0.292 OA 
ENDROOT
BRANCH   2   3
HETATM    3  C   UNL     1     -12.139   9.069  71.669  1.00  0.00    -0.352 A  
HETATM    4  C   UNL     1     -10.841   8.561  71.610  1.00  0.00    -0.286 A  
HETATM    5  O   UNL     1     -10.472   7.516  72.410  1.00  0.00    -0.214 OA 
HETATM    6  C   UNL     1      -9.881   9.120  70.771  1.00  0.00    -0.334 A  
HETATM    7  C   UNL     1     -10.227  10.215  69.978  1.00  0.00    -0.271 A  
HETATM    8  H   UNL     1      -9.588   7.169  72.370  1.00  0.00     0.000 HD 
HETATM    9  C   UNL     1     -11.529  10.730  70.001  1.00  0.00    -0.412 A  
HETATM   10  C   UNL     1     -12.489  10.132  70.836  1.00  0.00    -0.455 A  
BRANCH   9  11
HETATM   11  C   UNL     1     -11.904  11.960  69.219  1.00  0.00    -0.318 C  
BRANCH  11  12
HETATM   12  N   UNL     1     -10.856  12.372  68.333  1.00  0.00    -0.228 N  
HETATM   13  C   UNL     1     -11.064  12.506  66.981  1.00  0.00    -0.281 C  
HETATM   14  H   UNL     1      -9.931  12.570  68.715  1.00  0.00     0.000 HD 
HETATM   15  O   UNL     1     -12.131  12.308  66.429  1.00  0.00    -0.623 OA 
BRANCH  13  16
HETATM   16  C   UNL     1      -9.798  12.842  66.241  1.00  0.00    -0.273 C  
BRANCH  16  17
HETATM   17  C   UNL     1      -8.545  12.712  67.096  1.00  0.00    -0.199 C  
BRANCH  17  18
HETATM   18  C   UNL     1      -7.741  11.434  66.811  1.00  0.00    -0.150 C  
BRANCH  18  19
HETATM   19  C   UNL     1      -8.498  10.317  66.082  1.00  0.00    -0.144 C  
BRANCH  19  20
HETATM   20  C   UNL     1      -8.526   9.000  66.812  1.00  0.00    -0.121 C  
HETATM   21  C   UNL     1      -7.933   7.859  66.416  1.00  0.00    -0.102 C  
HETATM   22  C   UNL     1      -6.996   7.699  65.245  1.00  0.00    -0.058 C  
HETATM   23  C   UNL     1      -7.741   7.288  63.976  1.00  0.00    -0.120 C  
HETATM   24  C   UNL     1      -5.907   6.683  65.584  1.00  0.00    -0.030 C  
ENDBRANCH  19  20
ENDBRANCH  18  19
ENDBRANCH  17  18
ENDBRANCH  16  17
ENDBRANCH  13  16
ENDBRANCH  11  12
ENDBRANCH   9  11
ENDBRANCH   2   3
TORSDOF 8
ENDMDL
MODEL      279
REMARK 921   NORMALIZED FREE ENERGY PREDICTED BY IDOCK:   -3.76 KCAL/MOL
REMARK 922        TOTAL FREE ENERGY PREDICTED BY IDOCK:   -6.73 KCAL/MOL
REMARK 923 INTER-LIGAND FREE ENERGY PREDICTED BY IDOCK:   -5.80 KCAL/MOL
REMARK 924 INTRA-LIGAND FREE ENERGY PREDICTED BY IDOCK:   -0.92 KCAL/MOL
REMARK 927      BINDING AFFINITY PREDICTED BY RF-SCORE:    0.00 PKD
ROOT
HETATM    1  C   UNL     1     -11.587  15.070  68.441  1.00  0.00    -0.331 C  
HETATM    2  O   UNL     1     -11.494  15.106  67.016  1.00  0.00    -0.319 OA 
ENDROOT
BRANCH   2   3
HETATM    3  C   UNL     1     -11.057  13.936  66.454  1.00  0.00    -0.309 A  
HETATM    4  C   UNL     1     -11.929  13.306  65.566  1.00  0.00    -0.405 A  
HETATM    5  O   UNL     1     -13.152  13.853  65.293  1.00  0.00    -0.777 OA 
HETATM    6  C   UNL     1     -11.600  12.094  64.963  1.00  0.00    -0.365 A  
HETATM    7  C   UNL     1     -10.374  11.498  65.261  1.00  0.00    -0.322 A  
HETATM    8  H   UNL     1     -13.745  13.425  64.688  1.00  0.00     0.000 HD 
HETATM    9  C   UNL     1      -9.472  12.120  66.133  1.00  0.00    -0.231 A  
HETATM   10  C   UNL     1      -9.813  13.357  66.708  1.00  0.00    -0.265 A  
BRANCH   9  11
HETATM   11  C   UNL     1      -8.181  11.458  66.535  1.00  0.00    -0.152 C  
BRANCH  11  12
HETATM   12  N   UNL     1      -8.405  10.212  67.206  1.00  0.00    -0.121 N  
HETATM   13  C   UNL     1      -8.171  10.064  68.553  1.00  0.00    -0.108 C  
HETATM   14  H   UNL     1      -8.748   9.414  66.670  1.00  0.00     0.000 HD 
HETATM   15  O   UNL     1      -7.778  10.956  69.282  1.00  0.00    -0.135 OA 
BRANCH  13  16
HETATM   16  C   UNL     1      -8.374   8.646  69.013  1.00  0.00    -0.119 C  
BRANCH  16  17
HETATM   17  C   UNL     1      -9.835   8.289  69.246  1.00  0.00    -0.186 C  
BRANCH  17  18
HETATM   18  C   UNL     1     -10.506   7.634  68.030  1.00  0.00    -0.247 C  
BRANCH  18  19
HETATM   19  C   UNL     1     -11.018   6.202  68.237  1.00  0.00    -0.397 C  
BRANCH  19  20
HETATM   20  C   UNL     1     -10.578   5.562  69.528  1.00  0.00    -0.366 C  
HETATM   21  C   UNL     1      -9.592   4.660  69.673  1.00  0.00    -0.262 C  
HETATM   22  C   UNL     1      -8.623   4.217  68.604  1.00  0.00    -0.111 C  
HETATM   23  C   UNL     1      -9.118   2.971  67.873  1.00  0.00    -0.225 C  
HETATM   24  C   UNL     1      -7.247   3.970  69.219  1.00  0.00    -0.050 C  
ENDBRANCH  19  20
ENDBRANCH  18  19
ENDBRANCH  17  18
ENDBRANCH  16  17
ENDBRANCH  13  16
ENDBRANCH  11  12
ENDBRANCH   9  11
ENDBRANCH   2   3
TORSDOF 8
ENDMDL
MODEL      280
REMARK 921   NORMALIZED FREE ENERGY PREDICTED BY IDOCK:   -3.76 KCAL/MOL
REMARK 922        TOTAL FREE ENERGY PREDICTED BY IDOCK:   -6.73 KCAL/MOL
REMARK 923 INTER-LIGAND FREE ENERGY PREDICTED BY IDOCK:   -5.82 KCAL/MOL
REMARK 924 INTRA-LIGAND FREE ENERGY PREDICTED BY IDOCK:   -0.91 KCAL/MOL
REMARK 927      BINDING AFFINITY PREDICTED BY RF-SCORE:    0.00 PKD
ROOT
HETATM    1  C   UNL     1      -9.701   9.099  67.047  1.00  0.00    -0.188 C  
HETATM    2  O   UNL     1      -9.824  10.311  67.793  1.00  0.00    -0.163 OA 
ENDROOT
BRANCH   2   3
HETATM    3  C   UNL     1     -10.554  10.188  68.946  1.00  0.00    -0.215 A  
HETATM    4  C   UNL     1     -11.730  10.935  69.024  1.00  0.00    -0.320 A  
HETATM    5  O   UNL     1     -12.106  11.742  67.986  1.00  0.00    -0.572 OA 
HETATM    6  C   UNL     1     -12.530  10.911  70.164  1.00  0.00    -0.356 A  
HETATM    7  C   UNL     1     -12.141  10.126  71.250  1.00  0.00    -0.489 A  
HETATM    8  H   UNL     1     -12.906  12.251  68.040  1.00  0.00     0.000 HD 
HETATM    9  C   UNL     1     -10.978   9.349  71.188  1.00  0.00    -0.430 A  
HETATM   10  C   UNL     1     -10.200   9.368  70.018  1.00  0.00    -0.262 A  
BRANCH   9  11
HETATM   11  C   UNL     1     -10.493   8.561  72.375  1.00  0.00    -0.297 C  
BRANCH  11  12
HETATM   12  N   UNL     1     -10.066   7.244  72.005  1.00  0.00    -0.184 N  
HETATM   13  C   UNL     1     -10.963   6.213  71.844  1.00  0.00    -0.263 C  
HETATM   14  H   UNL     1      -9.073   7.066  71.858  1.00  0.00     0.000 HD 
HETATM   15  O   UNL     1     -12.167   6.324  71.981  1.00  0.00    -0.338 OA 
BRANCH  13  16
HETATM   16  C   UNL     1     -10.277   4.903  71.561  1.00  0.00    -0.264 C  
BRANCH  16  17
HETATM   17  C   UNL     1      -9.691   4.818  70.158  1.00  0.00    -0.288 C  
BRANCH  17  18
HETATM   18  C   UNL     1     -10.481   5.624  69.116  1.00  0.00    -0.339 C  
BRANCH  18  19
HETATM   19  C   UNL     1     -10.275   5.210  67.653  1.00  0.00    -0.197 C  
BRANCH  19  20
HETATM   20  C   UNL     1      -9.649   3.853  67.470  1.00  0.00    -0.212 C  
HETATM   21  C   UNL     1      -8.810   3.492  66.483  1.00  0.00    -0.136 C  
HETATM   22  C   UNL     1      -8.205   4.405  65.445  1.00  0.00    -0.110 C  
HETATM   23  C   UNL     1      -9.050   4.455  64.174  1.00  0.00    -0.149 C  
HETATM   24  C   UNL     1      -6.779   3.960  65.128  1.00  0.00    -0.048 C  
ENDBRANCH  19  20
ENDBRANCH  18  19
ENDBRANCH  17  18
ENDBRANCH  16  17
ENDBRANCH  13  16
ENDBRANCH  11  12
ENDBRANCH   9  11
ENDBRANCH   2   3
TORSDOF 8
ENDMDL
MODEL      281
REMARK 921   NORMALIZED FREE ENERGY PREDICTED BY IDOCK:   -3.72 KCAL/MOL
REMARK 922        TOTAL FREE ENERGY PREDICTED BY IDOCK:   -6.67 KCAL/MOL
REMARK 923 INTER-LIGAND FREE ENERGY PREDICTED BY IDOCK:   -5.94 KCAL/MOL
REMARK 924 INTRA-LIGAND FREE ENERGY PREDICTED BY IDOCK:   -0.73 KCAL/MOL
REMARK 927      BINDING AFFINITY PREDICTED BY RF-SCORE:    0.00 PKD
ROOT
HETATM    1  C   UNL     1     -10.581  19.533  67.862  1.00  0.00    -0.377 C  
HETATM    2  O   UNL     1      -9.683  18.512  68.299  1.00  0.00    -0.319 OA 
ENDROOT
BRANCH   2   3
HETATM    3  C   UNL     1      -9.933  17.277  67.760  1.00  0.00    -0.301 A  
HETATM    4  C   UNL     1      -9.172  16.915  66.649  1.00  0.00    -0.256 A  
HETATM    5  O   UNL     1      -8.233  17.773  66.145  1.00  0.00    -0.430 OA 
HETATM    6  C   UNL     1      -9.367  15.697  66.001  1.00  0.00    -0.384 A  
HETATM    7  C   UNL     1     -10.349  14.827  66.475  1.00  0.00    -0.287 A  
HETATM    8  H   UNL     1      -7.715  17.526  65.388  1.00  0.00     0.000 HD 
HETATM    9  C   UNL     1     -11.111  15.157  67.603  1.00  0.00    -0.318 A  
HETATM   10  C   UNL     1     -10.878  16.379  68.256  1.00  0.00    -0.347 A  
BRANCH   9  11
HETATM   11  C   UNL     1     -12.232  14.273  68.082  1.00  0.00    -0.129 C  
BRANCH  11  12
HETATM   12  N   UNL     1     -11.773  13.279  69.006  1.00  0.00    -0.302 N  
HETATM   13  C   UNL     1     -11.768  11.942  68.685  1.00  0.00    -0.323 C  
HETATM   14  H   UNL     1     -11.441  13.571  69.925  1.00  0.00     0.000 HD 
HETATM   15  O   UNL     1     -12.129  11.494  67.612  1.00  0.00    -0.623 OA 
BRANCH  13  16
HETATM   16  C   UNL     1     -11.346  11.081  69.845  1.00  0.00    -0.364 C  
BRANCH  16  17
HETATM   17  C   UNL     1     -10.240  10.095  69.494  1.00  0.00    -0.258 C  
BRANCH  17  18
HETATM   18  C   UNL     1      -9.696   9.330  70.710  1.00  0.00    -0.348 C  
BRANCH  18  19
HETATM   19  C   UNL     1      -8.389   8.559  70.486  1.00  0.00    -0.137 C  
BRANCH  19  20
HETATM   20  C   UNL     1      -8.501   7.403  69.528  1.00  0.00    -0.133 C  
HETATM   21  C   UNL     1      -7.814   7.251  68.381  1.00  0.00    -0.122 C  
HETATM   22  C   UNL     1      -6.683   8.123  67.895  1.00  0.00    -0.065 C  
HETATM   23  C   UNL     1      -7.184   9.242  66.984  1.00  0.00    -0.087 C  
HETATM   24  C   UNL     1      -5.639   7.270  67.178  1.00  0.00    -0.029 C  
ENDBRANCH  19  20
ENDBRANCH  18  19
ENDBRANCH  17  18
ENDBRANCH  16  17
ENDBRANCH  13  16
ENDBRANCH  11  12
ENDBRANCH   9  11
ENDBRANCH   2   3
TORSDOF 8
ENDMDL
MODEL      282
REMARK 921   NORMALIZED FREE ENERGY PREDICTED BY IDOCK:   -3.69 KCAL/MOL
REMARK 922        TOTAL FREE ENERGY PREDICTED BY IDOCK:   -6.63 KCAL/MOL
REMARK 923 INTER-LIGAND FREE ENERGY PREDICTED BY IDOCK:   -5.62 KCAL/MOL
REMARK 924 INTRA-LIGAND FREE ENERGY PREDICTED BY IDOCK:   -1.02 KCAL/MOL
REMARK 927      BINDING AFFINITY PREDICTED BY RF-SCORE:    0.00 PKD
ROOT
HETATM    1  C   UNL     1     -11.489   7.825  71.786  1.00  0.00    -0.266 C  
HETATM    2  O   UNL     1     -10.328   8.445  72.341  1.00  0.00    -0.305 OA 
ENDROOT
BRANCH   2   3
HETATM    3  C   UNL     1      -9.212   8.353  71.552  1.00  0.00    -0.196 A  
HETATM    4  C   UNL     1      -7.981   8.511  72.190  1.00  0.00    -0.088 A  
HETATM    5  O   UNL     1      -7.926   8.748  73.536  1.00  0.00    -0.409 OA 
HETATM    6  C   UNL     1      -6.785   8.470  71.478  1.00  0.00    -0.073 A  
HETATM    7  C   UNL     1      -6.822   8.271  70.098  1.00  0.00    -0.039 A  
HETATM    8  H   UNL     1      -7.088   8.855  73.970  1.00  0.00     0.000 HD 
HETATM    9  C   UNL     1      -8.043   8.087  69.437  1.00  0.00    -0.118 A  
HETATM   10  C   UNL     1      -9.236   8.106  70.180  1.00  0.00    -0.155 A  
BRANCH   9  11
HETATM   11  C   UNL     1      -8.116   7.956  67.939  1.00  0.00    -0.129 C  
BRANCH  11  12
HETATM   12  N   UNL     1      -8.778   9.074  67.335  1.00  0.00    -0.119 N  
HETATM   13  C   UNL     1     -10.041   8.964  66.802  1.00  0.00    -0.280 C  
HETATM   14  H   UNL     1      -8.300   9.974  67.300  1.00  0.00     0.000 HD 
HETATM   15  O   UNL     1     -10.700   7.942  66.807  1.00  0.00    -0.304 OA 
BRANCH  13  16
HETATM   16  C   UNL     1     -10.486  10.235  66.129  1.00  0.00    -0.200 C  
BRANCH  16  17
HETATM   17  C   UNL     1      -9.862  10.443  64.756  1.00  0.00    -0.406 C  
BRANCH  17  18
HETATM   18  C   UNL     1     -10.765  11.219  63.786  1.00  0.00    -0.448 C  
BRANCH  18  19
HETATM   19  C   UNL     1     -11.478  12.446  64.372  1.00  0.00    -0.408 C  
BRANCH  19  20
HETATM   20  C   UNL     1     -10.595  13.650  64.562  1.00  0.00    -0.428 C  
HETATM   21  C   UNL     1     -10.264  14.216  65.736  1.00  0.00    -0.347 C  
HETATM   22  C   UNL     1     -10.581  13.676  67.109  1.00  0.00    -0.272 C  
HETATM   23  C   UNL     1     -11.889  14.246  67.653  1.00  0.00    -0.420 C  
HETATM   24  C   UNL     1      -9.426  13.970  68.064  1.00  0.00    -0.206 C  
ENDBRANCH  19  20
ENDBRANCH  18  19
ENDBRANCH  17  18
ENDBRANCH  16  17
ENDBRANCH  13  16
ENDBRANCH  11  12
ENDBRANCH   9  11
ENDBRANCH   2   3
TORSDOF 8
ENDMDL
MODEL      283
REMARK 921   NORMALIZED FREE ENERGY PREDICTED BY IDOCK:   -3.68 KCAL/MOL
REMARK 922        TOTAL FREE ENERGY PREDICTED BY IDOCK:   -6.62 KCAL/MOL
REMARK 923 INTER-LIGAND FREE ENERGY PREDICTED BY IDOCK:   -5.90 KCAL/MOL
REMARK 924 INTRA-LIGAND FREE ENERGY PREDICTED BY IDOCK:   -0.72 KCAL/MOL
REMARK 927      BINDING AFFINITY PREDICTED BY RF-SCORE:    0.00 PKD
ROOT
HETATM    1  C   UNL     1      -8.345  20.147  66.940  1.00  0.00    -0.315 C  
HETATM    2  O   UNL     1      -8.664  19.277  68.027  1.00  0.00    -0.298 OA 
ENDROOT
BRANCH   2   3
HETATM    3  C   UNL     1      -8.760  17.956  67.678  1.00  0.00    -0.242 A  
HETATM    4  C   UNL     1      -7.814  17.093  68.233  1.00  0.00    -0.227 A  
HETATM    5  O   UNL     1      -6.852  17.574  69.077  1.00  0.00    -0.229 OA 
HETATM    6  C   UNL     1      -7.798  15.736  67.919  1.00  0.00    -0.149 A  
HETATM    7  C   UNL     1      -8.746  15.234  67.027  1.00  0.00    -0.260 A  
HETATM    8  H   UNL     1      -6.208  16.986  69.454  1.00  0.00     0.000 HD 
HETATM    9  C   UNL     1      -9.720  16.075  66.474  1.00  0.00    -0.284 A  
HETATM   10  C   UNL     1      -9.734  17.435  66.826  1.00  0.00    -0.293 A  
BRANCH   9  11
HETATM   11  C   UNL     1     -10.700  15.576  65.446  1.00  0.00    -0.405 C  
BRANCH  11  12
HETATM   12  N   UNL     1     -10.668  14.148  65.325  1.00  0.00    -0.341 N  
HETATM   13  C   UNL     1     -11.549  13.345  66.010  1.00  0.00    -0.344 C  
HETATM   14  H   UNL     1      -9.974  13.717  64.714  1.00  0.00     0.000 HD 
HETATM   15  O   UNL     1     -12.421  13.761  66.750  1.00  0.00    -0.366 OA 
BRANCH  13  16
HETATM   16  C   UNL     1     -11.258  11.882  65.811  1.00  0.00    -0.365 C  
BRANCH  16  17
HETATM   17  C   UNL     1     -11.070  11.120  67.116  1.00  0.00    -0.352 C  
BRANCH  17  18
HETATM   18  C   UNL     1     -10.477   9.716  66.923  1.00  0.00    -0.282 C  
BRANCH  18  19
HETATM   19  C   UNL     1      -9.179   9.428  67.689  1.00  0.00    -0.142 C  
BRANCH  19  20
HETATM   20  C   UNL     1      -9.370   9.123  69.151  1.00  0.00    -0.152 C  
HETATM   21  C   UNL     1      -9.676   7.925  69.680  1.00  0.00    -0.173 C  
HETATM   22  C   UNL     1      -9.739   6.612  68.940  1.00  0.00    -0.136 C  
HETATM   23  C   UNL     1     -11.152   6.311  68.443  1.00  0.00    -0.371 C  
HETATM   24  C   UNL     1      -9.231   5.484  69.835  1.00  0.00    -0.170 C  
ENDBRANCH  19  20
ENDBRANCH  18  19
ENDBRANCH  17  18
ENDBRANCH  16  17
ENDBRANCH  13  16
ENDBRANCH  11  12
ENDBRANCH   9  11
ENDBRANCH   2   3
TORSDOF 8
ENDMDL
MODEL      284
REMARK 921   NORMALIZED FREE ENERGY PREDICTED BY IDOCK:   -3.68 KCAL/MOL
REMARK 922        TOTAL FREE ENERGY PREDICTED BY IDOCK:   -6.61 KCAL/MOL
REMARK 923 INTER-LIGAND FREE ENERGY PREDICTED BY IDOCK:   -5.99 KCAL/MOL
REMARK 924 INTRA-LIGAND FREE ENERGY PREDICTED BY IDOCK:   -0.63 KCAL/MOL
REMARK 927      BINDING AFFINITY PREDICTED BY RF-SCORE:    0.00 PKD
ROOT
HETATM    1  C   UNL     1      -9.771  16.259  65.765  1.00  0.00    -0.264 C  
HETATM    2  O   UNL     1     -11.013  15.624  65.460  1.00  0.00    -0.335 OA 
ENDROOT
BRANCH   2   3
HETATM    3  C   UNL     1     -10.990  14.259  65.585  1.00  0.00    -0.309 A  
HETATM    4  C   UNL     1     -11.631  13.724  66.702  1.00  0.00    -0.369 A  
HETATM    5  O   UNL     1     -12.242  14.546  67.609  1.00  0.00    -0.598 OA 
HETATM    6  C   UNL     1     -11.640  12.353  66.946  1.00  0.00    -0.437 A  
HETATM    7  C   UNL     1     -10.986  11.501  66.055  1.00  0.00    -0.316 A  
HETATM    8  H   UNL     1     -12.679  14.181  68.369  1.00  0.00     0.000 HD 
HETATM    9  C   UNL     1     -10.354  12.011  64.915  1.00  0.00    -0.316 A  
HETATM   10  C   UNL     1     -10.382  13.395  64.674  1.00  0.00    -0.400 A  
BRANCH   9  11
HETATM   11  C   UNL     1      -9.571  11.123  63.984  1.00  0.00    -0.254 C  
BRANCH  11  12
HETATM   12  N   UNL     1      -9.518   9.770  64.453  1.00  0.00    -0.413 N  
HETATM   13  C   UNL     1      -8.538   9.344  65.319  1.00  0.00    -0.162 C  
HETATM   14  H   UNL     1     -10.225   9.106  64.138  1.00  0.00     0.000 HD 
HETATM   15  O   UNL     1      -7.659  10.059  65.765  1.00  0.00    -0.109 OA 
BRANCH  13  16
HETATM   16  C   UNL     1      -8.620   7.866  65.587  1.00  0.00    -0.159 C  
BRANCH  16  17
HETATM   17  C   UNL     1      -9.875   7.458  66.347  1.00  0.00    -0.137 C  
BRANCH  17  18
HETATM   18  C   UNL     1     -10.418   8.562  67.266  1.00  0.00    -0.366 C  
BRANCH  18  19
HETATM   19  C   UNL     1     -10.628   8.167  68.734  1.00  0.00    -0.149 C  
BRANCH  19  20
HETATM   20  C   UNL     1     -10.762   6.686  68.970  1.00  0.00    -0.299 C  
HETATM   21  C   UNL     1      -9.919   5.914  69.679  1.00  0.00    -0.234 C  
HETATM   22  C   UNL     1      -8.754   6.392  70.509  1.00  0.00    -0.144 C  
HETATM   23  C   UNL     1      -7.453   6.393  69.709  1.00  0.00    -0.085 C  
HETATM   24  C   UNL     1      -8.616   5.529  71.761  1.00  0.00    -0.135 C  
ENDBRANCH  19  20
ENDBRANCH  18  19
ENDBRANCH  17  18
ENDBRANCH  16  17
ENDBRANCH  13  16
ENDBRANCH  11  12
ENDBRANCH   9  11
ENDBRANCH   2   3
TORSDOF 8
ENDMDL
MODEL      285
REMARK 921   NORMALIZED FREE ENERGY PREDICTED BY IDOCK:   -3.67 KCAL/MOL
REMARK 922        TOTAL FREE ENERGY PREDICTED BY IDOCK:   -6.60 KCAL/MOL
REMARK 923 INTER-LIGAND FREE ENERGY PREDICTED BY IDOCK:   -5.49 KCAL/MOL
REMARK 924 INTRA-LIGAND FREE ENERGY PREDICTED BY IDOCK:   -1.11 KCAL/MOL
REMARK 927      BINDING AFFINITY PREDICTED BY RF-SCORE:    0.00 PKD
ROOT
HETATM    1  C   UNL     1      -9.706   4.298  65.306  1.00  0.00    -0.197 C  
HETATM    2  O   UNL     1      -8.553   5.078  65.625  1.00  0.00    -0.125 OA 
ENDROOT
BRANCH   2   3
HETATM    3  C   UNL     1      -8.816   6.175  66.402  1.00  0.00    -0.141 A  
HETATM    4  C   UNL     1      -8.642   6.023  67.778  1.00  0.00    -0.106 A  
HETATM    5  O   UNL     1      -8.231   4.825  68.294  1.00  0.00    -0.088 OA 
HETATM    6  C   UNL     1      -8.914   7.063  68.663  1.00  0.00    -0.130 A  
HETATM    7  C   UNL     1      -9.375   8.280  68.160  1.00  0.00    -0.140 A  
HETATM    8  H   UNL     1      -8.112   4.721  69.230  1.00  0.00     0.000 HD 
HETATM    9  C   UNL     1      -9.537   8.466  66.781  1.00  0.00    -0.283 A  
HETATM   10  C   UNL     1      -9.230   7.411  65.905  1.00  0.00    -0.022 A  
BRANCH   9  11
HETATM   11  C   UNL     1     -10.112   9.739  66.220  1.00  0.00    -0.243 C  
BRANCH  11  12
HETATM   12  N   UNL     1      -9.943  10.844  67.117  1.00  0.00    -0.184 N  
HETATM   13  C   UNL     1     -10.995  11.352  67.842  1.00  0.00    -0.240 C  
HETATM   14  H   UNL     1      -9.019  11.264  67.220  1.00  0.00     0.000 HD 
HETATM   15  O   UNL     1     -12.130  10.914  67.803  1.00  0.00    -0.433 OA 
BRANCH  13  16
HETATM   16  C   UNL     1     -10.604  12.573  68.631  1.00  0.00    -0.240 C  
BRANCH  16  17
HETATM   17  C   UNL     1     -11.224  13.859  68.102  1.00  0.00    -0.293 C  
BRANCH  17  18
HETATM   18  C   UNL     1     -10.186  14.916  67.698  1.00  0.00    -0.236 C  
BRANCH  18  19
HETATM   19  C   UNL     1      -9.660  14.823  66.259  1.00  0.00    -0.339 C  
BRANCH  19  20
HETATM   20  C   UNL     1     -10.670  15.177  65.200  1.00  0.00    -0.442 C  
HETATM   21  C   UNL     1     -11.312  14.313  64.394  1.00  0.00    -0.284 C  
HETATM   22  C   UNL     1     -11.272  12.808  64.485  1.00  0.00    -0.373 C  
HETATM   23  C   UNL     1     -10.182  12.217  63.592  1.00  0.00    -0.459 C  
HETATM   24  C   UNL     1     -12.638  12.227  64.125  1.00  0.00    -0.493 C  
ENDBRANCH  19  20
ENDBRANCH  18  19
ENDBRANCH  17  18
ENDBRANCH  16  17
ENDBRANCH  13  16
ENDBRANCH  11  12
ENDBRANCH   9  11
ENDBRANCH   2   3
TORSDOF 8
ENDMDL
MODEL      286
REMARK 921   NORMALIZED FREE ENERGY PREDICTED BY IDOCK:   -3.66 KCAL/MOL
REMARK 922        TOTAL FREE ENERGY PREDICTED BY IDOCK:   -6.59 KCAL/MOL
REMARK 923 INTER-LIGAND FREE ENERGY PREDICTED BY IDOCK:   -5.84 KCAL/MOL
REMARK 924 INTRA-LIGAND FREE ENERGY PREDICTED BY IDOCK:   -0.75 KCAL/MOL
REMARK 927      BINDING AFFINITY PREDICTED BY RF-SCORE:    0.00 PKD
ROOT
HETATM    1  C   UNL     1     -11.506  15.855  64.580  1.00  0.00    -0.263 C  
HETATM    2  O   UNL     1     -10.967  17.176  64.647  1.00  0.00    -1.005 OA 
ENDROOT
BRANCH   2   3
HETATM    3  C   UNL     1     -10.534  17.542  65.895  1.00  0.00    -0.249 A  
HETATM    4  C   UNL     1     -10.533  18.907  66.181  1.00  0.00    -0.457 A  
HETATM    5  O   UNL     1     -10.948  19.810  65.241  1.00  0.00    -0.410 OA 
HETATM    6  C   UNL     1     -10.081  19.391  67.406  1.00  0.00    -0.506 A  
HETATM    7  C   UNL     1      -9.615  18.489  68.362  1.00  0.00    -0.383 A  
HETATM    8  H   UNL     1     -10.948  20.739  65.436  1.00  0.00     0.000 HD 
HETATM    9  C   UNL     1      -9.625  17.112  68.108  1.00  0.00    -0.270 A  
HETATM   10  C   UNL     1     -10.112  16.644  66.875  1.00  0.00    -0.280 A  
BRANCH   9  11
HETATM   11  C   UNL     1      -9.050  16.125  69.089  1.00  0.00    -0.243 C  
BRANCH  11  12
HETATM   12  N   UNL     1      -9.165  14.776  68.621  1.00  0.00    -0.191 N  
HETATM   13  C   UNL     1      -8.077  14.079  68.152  1.00  0.00    -0.151 C  
HETATM   14  H   UNL     1     -10.078  14.321  68.636  1.00  0.00     0.000 HD 
HETATM   15  O   UNL     1      -6.945  14.524  68.107  1.00  0.00    -0.097 OA 
BRANCH  13  16
HETATM   16  C   UNL     1      -8.457  12.724  67.617  1.00  0.00    -0.178 C  
BRANCH  16  17
HETATM   17  C   UNL     1      -7.387  11.664  67.841  1.00  0.00    -0.096 C  
BRANCH  17  18
HETATM   18  C   UNL     1      -7.064  11.425  69.323  1.00  0.00    -0.100 C  
BRANCH  18  19
HETATM   19  C   UNL     1      -7.529  10.082  69.901  1.00  0.00    -0.171 C  
BRANCH  19  20
HETATM   20  C   UNL     1      -7.043   8.874  69.146  1.00  0.00    -0.063 C  
HETATM   21  C   UNL     1      -7.797   8.040  68.408  1.00  0.00    -0.122 C  
HETATM   22  C   UNL     1      -9.253   8.226  68.059  1.00  0.00    -0.142 C  
HETATM   23  C   UNL     1     -10.169   7.531  69.064  1.00  0.00    -0.208 C  
HETATM   24  C   UNL     1      -9.519   7.716  66.644  1.00  0.00    -0.255 C  
ENDBRANCH  19  20
ENDBRANCH  18  19
ENDBRANCH  17  18
ENDBRANCH  16  17
ENDBRANCH  13  16
ENDBRANCH  11  12
ENDBRANCH   9  11
ENDBRANCH   2   3
TORSDOF 8
ENDMDL
MODEL      287
REMARK 921   NORMALIZED FREE ENERGY PREDICTED BY IDOCK:   -3.66 KCAL/MOL
REMARK 922        TOTAL FREE ENERGY PREDICTED BY IDOCK:   -6.59 KCAL/MOL
REMARK 923 INTER-LIGAND FREE ENERGY PREDICTED BY IDOCK:   -4.28 KCAL/MOL
REMARK 924 INTRA-LIGAND FREE ENERGY PREDICTED BY IDOCK:   -2.31 KCAL/MOL
REMARK 927      BINDING AFFINITY PREDICTED BY RF-SCORE:    0.00 PKD
ROOT
HETATM    1  C   UNL     1      -8.555   9.151  70.754  1.00  0.00    -0.219 C  
HETATM    2  O   UNL     1      -9.665   9.419  71.613  1.00  0.00    -0.241 OA 
ENDROOT
BRANCH   2   3
HETATM    3  C   UNL     1     -10.493   8.345  71.809  1.00  0.00    -0.283 A  
HETATM    4  C   UNL     1     -11.713   8.363  71.132  1.00  0.00    -0.280 A  
HETATM    5  O   UNL     1     -12.037   9.417  70.323  1.00  0.00    -0.471 OA 
HETATM    6  C   UNL     1     -12.644   7.339  71.286  1.00  0.00    -0.402 A  
HETATM    7  C   UNL     1     -12.349   6.276  72.141  1.00  0.00    -0.193 A  
HETATM    8  H   UNL     1     -12.867   9.429  69.862  1.00  0.00     0.000 HD 
HETATM    9  C   UNL     1     -11.122   6.222  72.814  1.00  0.00    -0.284 A  
HETATM   10  C   UNL     1     -10.187   7.253  72.623  1.00  0.00    -0.251 A  
BRANCH   9  11
HETATM   11  C   UNL     1     -10.815   5.131  73.805  1.00  0.00    -0.287 C  
BRANCH  11  12
HETATM   12  N   UNL     1      -9.431   4.760  73.780  1.00  0.00    -0.124 N  
HETATM   13  C   UNL     1      -9.035   3.461  73.563  1.00  0.00    -0.090 C  
HETATM   14  H   UNL     1      -8.721   5.478  73.928  1.00  0.00     0.000 HD 
HETATM   15  O   UNL     1      -9.800   2.536  73.362  1.00  0.00    -0.094 OA 
BRANCH  13  16
HETATM   16  C   UNL     1      -7.545   3.292  73.687  1.00  0.00    -0.061 C  
BRANCH  16  17
HETATM   17  C   UNL     1      -6.810   3.411  72.359  1.00  0.00    -0.030 C  
BRANCH  17  18
HETATM   18  C   UNL     1      -6.084   4.753  72.181  1.00  0.00    -0.017 C  
BRANCH  18  19
HETATM   19  C   UNL     1      -6.903   5.876  71.531  1.00  0.00    -0.067 C  
BRANCH  19  20
HETATM   20  C   UNL     1      -6.930   5.839  70.026  1.00  0.00    -0.065 C  
HETATM   21  C   UNL     1      -7.986   5.516  69.258  1.00  0.00    -0.095 C  
HETATM   22  C   UNL     1      -9.397   5.275  69.734  1.00  0.00    -0.182 C  
HETATM   23  C   UNL     1      -9.653   3.796  70.018  1.00  0.00    -0.259 C  
HETATM   24  C   UNL     1     -10.393   5.807  68.706  1.00  0.00    -0.289 C  
ENDBRANCH  19  20
ENDBRANCH  18  19
ENDBRANCH  17  18
ENDBRANCH  16  17
ENDBRANCH  13  16
ENDBRANCH  11  12
ENDBRANCH   9  11
ENDBRANCH   2   3
TORSDOF 8
ENDMDL
MODEL      288
REMARK 921   NORMALIZED FREE ENERGY PREDICTED BY IDOCK:   -3.66 KCAL/MOL
REMARK 922        TOTAL FREE ENERGY PREDICTED BY IDOCK:   -6.59 KCAL/MOL
REMARK 923 INTER-LIGAND FREE ENERGY PREDICTED BY IDOCK:   -6.03 KCAL/MOL
REMARK 924 INTRA-LIGAND FREE ENERGY PREDICTED BY IDOCK:   -0.56 KCAL/MOL
REMARK 927      BINDING AFFINITY PREDICTED BY RF-SCORE:    0.00 PKD
ROOT
HETATM    1  C   UNL     1      -7.908  19.117  68.926  1.00  0.00    -0.316 C  
HETATM    2  O   UNL     1      -7.668  17.851  68.308  1.00  0.00    -0.258 OA 
ENDROOT
BRANCH   2   3
HETATM    3  C   UNL     1      -8.803  17.124  68.061  1.00  0.00    -0.229 A  
HETATM    4  C   UNL     1      -8.991  16.686  66.750  1.00  0.00    -0.237 A  
HETATM    5  O   UNL     1      -8.071  16.985  65.783  1.00  0.00    -0.460 OA 
HETATM    6  C   UNL     1     -10.126  15.969  66.380  1.00  0.00    -0.314 A  
HETATM    7  C   UNL     1     -11.096  15.690  67.344  1.00  0.00    -0.260 A  
HETATM    8  H   UNL     1      -8.199  16.686  64.890  1.00  0.00     0.000 HD 
HETATM    9  C   UNL     1     -10.921  16.099  68.671  1.00  0.00    -0.336 A  
HETATM   10  C   UNL     1      -9.754  16.798  69.027  1.00  0.00    -0.244 A  
BRANCH   9  11
HETATM   11  C   UNL     1     -11.990  15.885  69.710  1.00  0.00    -0.264 C  
BRANCH  11  12
HETATM   12  N   UNL     1     -12.196  14.494  69.986  1.00  0.00    -0.329 N  
HETATM   13  C   UNL     1     -12.903  14.074  71.088  1.00  0.00    -0.357 C  
HETATM   14  H   UNL     1     -11.810  13.798  69.349  1.00  0.00     0.000 HD 
HETATM   15  O   UNL     1     -13.416  14.823  71.900  1.00  0.00    -0.320 OA 
BRANCH  13  16
HETATM   16  C   UNL     1     -12.898  12.576  71.229  1.00  0.00    -0.337 C  
BRANCH  16  17
HETATM   17  C   UNL     1     -12.033  11.874  70.192  1.00  0.00    -0.413 C  
BRANCH  17  18
HETATM   18  C   UNL     1     -11.578  10.472  70.623  1.00  0.00    -0.445 C  
BRANCH  18  19
HETATM   19  C   UNL     1     -10.688   9.720  69.625  1.00  0.00    -0.264 C  
BRANCH  19  20
HETATM   20  C   UNL     1     -10.563   8.243  69.887  1.00  0.00    -0.232 C  
HETATM   21  C   UNL     1      -9.422   7.570  70.118  1.00  0.00    -0.161 C  
HETATM   22  C   UNL     1      -8.053   8.173  70.314  1.00  0.00    -0.109 C  
HETATM   23  C   UNL     1      -7.277   8.252  69.001  1.00  0.00    -0.073 C  
HETATM   24  C   UNL     1      -7.274   7.370  71.353  1.00  0.00    -0.071 C  
ENDBRANCH  19  20
ENDBRANCH  18  19
ENDBRANCH  17  18
ENDBRANCH  16  17
ENDBRANCH  13  16
ENDBRANCH  11  12
ENDBRANCH   9  11
ENDBRANCH   2   3
TORSDOF 8
ENDMDL
MODEL      289
REMARK 921   NORMALIZED FREE ENERGY PREDICTED BY IDOCK:   -3.65 KCAL/MOL
REMARK 922        TOTAL FREE ENERGY PREDICTED BY IDOCK:   -6.58 KCAL/MOL
REMARK 923 INTER-LIGAND FREE ENERGY PREDICTED BY IDOCK:   -5.46 KCAL/MOL
REMARK 924 INTRA-LIGAND FREE ENERGY PREDICTED BY IDOCK:   -1.12 KCAL/MOL
REMARK 927      BINDING AFFINITY PREDICTED BY RF-SCORE:    0.00 PKD
ROOT
HETATM    1  C   UNL     1      -9.908   4.136  64.735  1.00  0.00    -0.188 C  
HETATM    2  O   UNL     1      -8.855   4.698  65.520  1.00  0.00    -0.125 OA 
ENDROOT
BRANCH   2   3
HETATM    3  C   UNL     1      -9.282   5.560  66.495  1.00  0.00    -0.141 A  
HETATM    4  C   UNL     1      -9.509   5.013  67.758  1.00  0.00    -0.133 A  
HETATM    5  O   UNL     1      -9.307   3.679  67.980  1.00  0.00    -0.163 OA 
HETATM    6  C   UNL     1      -9.977   5.793  68.813  1.00  0.00    -0.207 A  
HETATM    7  C   UNL     1     -10.229   7.148  68.596  1.00  0.00    -0.186 A  
HETATM    8  H   UNL     1      -9.460   3.307  68.840  1.00  0.00     0.000 HD 
HETATM    9  C   UNL     1      -9.989   7.726  67.344  1.00  0.00    -0.257 A  
HETATM   10  C   UNL     1      -9.490   6.926  66.301  1.00  0.00    -0.122 A  
BRANCH   9  11
HETATM   11  C   UNL     1     -10.332   9.165  67.061  1.00  0.00    -0.263 C  
BRANCH  11  12
HETATM   12  N   UNL     1     -10.156   9.495  65.678  1.00  0.00    -0.341 N  
HETATM   13  C   UNL     1      -9.082  10.235  65.243  1.00  0.00    -0.191 C  
HETATM   14  H   UNL     1     -10.846   9.174  64.999  1.00  0.00     0.000 HD 
HETATM   15  O   UNL     1      -8.198  10.652  65.969  1.00  0.00    -0.148 OA 
BRANCH  13  16
HETATM   16  C   UNL     1      -9.164  10.547  63.774  1.00  0.00    -0.292 C  
BRANCH  16  17
HETATM   17  C   UNL     1      -9.671  11.953  63.482  1.00  0.00    -0.287 C  
BRANCH  17  18
HETATM   18  C   UNL     1     -11.185  12.016  63.233  1.00  0.00    -0.403 C  
BRANCH  18  19
HETATM   19  C   UNL     1     -12.037  12.505  64.412  1.00  0.00    -0.500 C  
BRANCH  19  20
HETATM   20  C   UNL     1     -11.578  13.803  65.020  1.00  0.00    -0.350 C  
HETATM   21  C   UNL     1     -11.031  13.961  66.239  1.00  0.00    -0.298 C  
HETATM   22  C   UNL     1     -10.625  12.858  67.185  1.00  0.00    -0.246 C  
HETATM   23  C   UNL     1     -11.744  12.514  68.166  1.00  0.00    -0.400 C  
HETATM   24  C   UNL     1      -9.355  13.255  67.934  1.00  0.00    -0.214 C  
ENDBRANCH  19  20
ENDBRANCH  18  19
ENDBRANCH  17  18
ENDBRANCH  16  17
ENDBRANCH  13  16
ENDBRANCH  11  12
ENDBRANCH   9  11
ENDBRANCH   2   3
TORSDOF 8
ENDMDL
MODEL      290
REMARK 921   NORMALIZED FREE ENERGY PREDICTED BY IDOCK:   -3.65 KCAL/MOL
REMARK 922        TOTAL FREE ENERGY PREDICTED BY IDOCK:   -6.57 KCAL/MOL
REMARK 923 INTER-LIGAND FREE ENERGY PREDICTED BY IDOCK:   -6.16 KCAL/MOL
REMARK 924 INTRA-LIGAND FREE ENERGY PREDICTED BY IDOCK:   -0.41 KCAL/MOL
REMARK 927      BINDING AFFINITY PREDICTED BY RF-SCORE:    0.00 PKD
ROOT
HETATM    1  C   UNL     1      -7.817  15.398  67.249  1.00  0.00    -0.206 C  
HETATM    2  O   UNL     1      -8.945  15.028  66.454  1.00  0.00    -0.280 OA 
ENDROOT
BRANCH   2   3
HETATM    3  C   UNL     1     -10.009  14.556  67.178  1.00  0.00    -0.252 A  
HETATM    4  C   UNL     1     -10.684  15.483  67.972  1.00  0.00    -0.283 A  
HETATM    5  O   UNL     1     -10.278  16.789  68.006  1.00  0.00    -0.275 OA 
HETATM    6  C   UNL     1     -11.758  15.106  68.773  1.00  0.00    -0.366 A  
HETATM    7  C   UNL     1     -12.161  13.770  68.784  1.00  0.00    -0.344 A  
HETATM    8  H   UNL     1     -10.739  17.420  68.546  1.00  0.00     0.000 HD 
HETATM    9  C   UNL     1     -11.514  12.824  67.979  1.00  0.00    -0.364 A  
HETATM   10  C   UNL     1     -10.450  13.233  67.158  1.00  0.00    -0.248 A  
BRANCH   9  11
HETATM   11  C   UNL     1     -11.873  11.363  68.036  1.00  0.00    -0.202 C  
BRANCH  11  12
HETATM   12  N   UNL     1     -11.171  10.679  69.081  1.00  0.00    -0.246 N  
HETATM   13  C   UNL     1     -11.763  10.407  70.292  1.00  0.00    -0.321 C  
HETATM   14  H   UNL     1     -10.207  10.386  68.922  1.00  0.00     0.000 HD 
HETATM   15  O   UNL     1     -12.910  10.700  70.575  1.00  0.00    -0.349 OA 
BRANCH  13  16
HETATM   16  C   UNL     1     -10.802   9.780  71.266  1.00  0.00    -0.276 C  
BRANCH  16  17
HETATM   17  C   UNL     1     -11.368   8.552  71.967  1.00  0.00    -0.425 C  
BRANCH  17  18
HETATM   18  C   UNL     1     -11.661   7.385  71.013  1.00  0.00    -0.315 C  
BRANCH  18  19
HETATM   19  C   UNL     1     -10.500   6.952  70.108  1.00  0.00    -0.233 C  
BRANCH  19  20
HETATM   20  C   UNL     1     -10.500   5.491  69.746  1.00  0.00    -0.389 C  
HETATM   21  C   UNL     1     -10.003   4.487  70.490  1.00  0.00    -0.278 C  
HETATM   22  C   UNL     1      -9.481   4.595  71.902  1.00  0.00    -0.197 C  
HETATM   23  C   UNL     1      -7.974   4.837  71.931  1.00  0.00    -0.105 C  
HETATM   24  C   UNL     1      -9.841   3.336  72.688  1.00  0.00    -0.207 C  
ENDBRANCH  19  20
ENDBRANCH  18  19
ENDBRANCH  17  18
ENDBRANCH  16  17
ENDBRANCH  13  16
ENDBRANCH  11  12
ENDBRANCH   9  11
ENDBRANCH   2   3
TORSDOF 8
ENDMDL
MODEL      291
REMARK 921   NORMALIZED FREE ENERGY PREDICTED BY IDOCK:   -3.63 KCAL/MOL
REMARK 922        TOTAL FREE ENERGY PREDICTED BY IDOCK:   -6.55 KCAL/MOL
REMARK 923 INTER-LIGAND FREE ENERGY PREDICTED BY IDOCK:   -5.65 KCAL/MOL
REMARK 924 INTRA-LIGAND FREE ENERGY PREDICTED BY IDOCK:   -0.89 KCAL/MOL
REMARK 927      BINDING AFFINITY PREDICTED BY RF-SCORE:    0.00 PKD
ROOT
HETATM    1  C   UNL     1     -12.564  11.029  70.989  1.00  0.00    -0.411 C  
HETATM    2  O   UNL     1     -12.303   9.635  70.817  1.00  0.00    -0.275 OA 
ENDROOT
BRANCH   2   3
HETATM    3  C   UNL     1     -11.009   9.271  71.081  1.00  0.00    -0.339 A  
HETATM    4  C   UNL     1     -10.807   8.436  72.181  1.00  0.00    -0.337 A  
HETATM    5  O   UNL     1     -11.869   8.021  72.937  1.00  0.00    -0.589 OA 
HETATM    6  C   UNL     1      -9.530   8.031  72.560  1.00  0.00    -0.297 A  
HETATM    7  C   UNL     1      -8.430   8.478  71.825  1.00  0.00    -0.236 A  
HETATM    8  H   UNL     1     -11.731   7.452  73.685  1.00  0.00     0.000 HD 
HETATM    9  C   UNL     1      -8.607   9.299  70.705  1.00  0.00    -0.270 A  
HETATM   10  C   UNL     1      -9.908   9.671  70.324  1.00  0.00    -0.321 A  
BRANCH   9  11
HETATM   11  C   UNL     1      -7.435   9.861  69.947  1.00  0.00    -0.154 C  
BRANCH  11  12
HETATM   12  N   UNL     1      -7.751  10.098  68.570  1.00  0.00    -0.087 N  
HETATM   13  C   UNL     1      -7.940  11.369  68.080  1.00  0.00    -0.133 C  
HETATM   14  H   UNL     1      -7.837   9.303  67.936  1.00  0.00     0.000 HD 
HETATM   15  O   UNL     1      -7.844  12.382  68.748  1.00  0.00    -0.085 OA 
BRANCH  13  16
HETATM   16  C   UNL     1      -8.366  11.364  66.637  1.00  0.00    -0.172 C  
BRANCH  16  17
HETATM   17  C   UNL     1      -9.862  11.575  66.447  1.00  0.00    -0.233 C  
BRANCH  17  18
HETATM   18  C   UNL     1     -10.724  10.568  67.223  1.00  0.00    -0.333 C  
BRANCH  18  19
HETATM   19  C   UNL     1     -10.769   9.145  66.651  1.00  0.00    -0.049 C  
BRANCH  19  20
HETATM   20  C   UNL     1      -9.528   8.331  66.902  1.00  0.00    -0.240 C  
HETATM   21  C   UNL     1      -9.484   7.079  67.392  1.00  0.00    -0.155 C  
HETATM   22  C   UNL     1     -10.667   6.178  67.647  1.00  0.00    -0.388 C  
HETATM   23  C   UNL     1     -11.171   6.299  69.083  1.00  0.00    -0.439 C  
HETATM   24  C   UNL     1     -10.298   4.731  67.326  1.00  0.00    -0.109 C  
ENDBRANCH  19  20
ENDBRANCH  18  19
ENDBRANCH  17  18
ENDBRANCH  16  17
ENDBRANCH  13  16
ENDBRANCH  11  12
ENDBRANCH   9  11
ENDBRANCH   2   3
TORSDOF 8
ENDMDL
MODEL      292
REMARK 921   NORMALIZED FREE ENERGY PREDICTED BY IDOCK:   -3.63 KCAL/MOL
REMARK 922        TOTAL FREE ENERGY PREDICTED BY IDOCK:   -6.54 KCAL/MOL
REMARK 923 INTER-LIGAND FREE ENERGY PREDICTED BY IDOCK:   -5.21 KCAL/MOL
REMARK 924 INTRA-LIGAND FREE ENERGY PREDICTED BY IDOCK:   -1.33 KCAL/MOL
REMARK 927      BINDING AFFINITY PREDICTED BY RF-SCORE:    0.00 PKD
ROOT
HETATM    1  C   UNL     1     -12.714  13.878  65.679  1.00  0.00    -0.495 C  
HETATM    2  O   UNL     1     -12.157  12.619  66.061  1.00  0.00    -0.503 OA 
ENDROOT
BRANCH   2   3
HETATM    3  C   UNL     1     -10.992  12.715  66.776  1.00  0.00    -0.262 A  
HETATM    4  C   UNL     1     -10.156  11.599  66.762  1.00  0.00    -0.213 A  
HETATM    5  O   UNL     1     -10.512  10.478  66.064  1.00  0.00    -0.225 OA 
HETATM    6  C   UNL     1      -8.964  11.576  67.481  1.00  0.00    -0.159 A  
HETATM    7  C   UNL     1      -8.604  12.694  68.235  1.00  0.00    -0.167 A  
HETATM    8  H   UNL     1      -9.943   9.718  66.054  1.00  0.00     0.000 HD 
HETATM    9  C   UNL     1      -9.414  13.836  68.247  1.00  0.00    -0.214 A  
HETATM   10  C   UNL     1     -10.599  13.846  67.492  1.00  0.00    -0.256 A  
BRANCH   9  11
HETATM   11  C   UNL     1      -9.091  15.022  69.117  1.00  0.00    -0.183 C  
BRANCH  11  12
HETATM   12  N   UNL     1     -10.020  15.162  70.198  1.00  0.00    -0.498 N  
HETATM   13  C   UNL     1     -11.129  15.969  70.099  1.00  0.00    -0.371 C  
HETATM   14  H   UNL     1      -9.855  14.649  71.064  1.00  0.00     0.000 HD 
HETATM   15  O   UNL     1     -11.423  16.610  69.106  1.00  0.00    -0.165 OA 
BRANCH  13  16
HETATM   16  C   UNL     1     -11.897  16.042  71.391  1.00  0.00    -0.531 C  
BRANCH  16  17
HETATM   17  C   UNL     1     -11.662  14.845  72.302  1.00  0.00    -0.333 C  
BRANCH  17  18
HETATM   18  C   UNL     1     -12.742  13.760  72.175  1.00  0.00    -0.293 C  
BRANCH  18  19
HETATM   19  C   UNL     1     -12.909  13.142  70.781  1.00  0.00    -0.169 C  
BRANCH  19  20
HETATM   20  C   UNL     1     -11.837  12.156  70.401  1.00  0.00    -0.277 C  
HETATM   21  C   UNL     1     -11.840  10.837  70.665  1.00  0.00    -0.460 C  
HETATM   22  C   UNL     1     -12.981  10.047  71.257  1.00  0.00    -0.495 C  
HETATM   23  C   UNL     1     -12.872   9.950  72.777  1.00  0.00     0.564 C  
HETATM   24  C   UNL     1     -13.032   8.656  70.630  1.00  0.00     0.497 C  
ENDBRANCH  19  20
ENDBRANCH  18  19
ENDBRANCH  17  18
ENDBRANCH  16  17
ENDBRANCH  13  16
ENDBRANCH  11  12
ENDBRANCH   9  11
ENDBRANCH   2   3
TORSDOF 8
ENDMDL
MODEL      293
REMARK 921   NORMALIZED FREE ENERGY PREDICTED BY IDOCK:   -3.62 KCAL/MOL
REMARK 922        TOTAL FREE ENERGY PREDICTED BY IDOCK:   -6.53 KCAL/MOL
REMARK 923 INTER-LIGAND FREE ENERGY PREDICTED BY IDOCK:   -5.21 KCAL/MOL
REMARK 924 INTRA-LIGAND FREE ENERGY PREDICTED BY IDOCK:   -1.32 KCAL/MOL
REMARK 927      BINDING AFFINITY PREDICTED BY RF-SCORE:    0.00 PKD
ROOT
HETATM    1  C   UNL     1     -10.500  19.883  66.597  1.00  0.00    -0.460 C  
HETATM    2  O   UNL     1      -9.468  19.418  65.726  1.00  0.00    -0.391 OA 
ENDROOT
BRANCH   2   3
HETATM    3  C   UNL     1      -8.876  18.250  66.131  1.00  0.00    -0.091 A  
HETATM    4  C   UNL     1      -7.549  18.336  66.554  1.00  0.00    -0.242 A  
HETATM    5  O   UNL     1      -6.899  19.539  66.549  1.00  0.00    -0.191 OA 
HETATM    6  C   UNL     1      -6.841  17.206  66.955  1.00  0.00    -0.228 A  
HETATM    7  C   UNL     1      -7.474  15.963  66.927  1.00  0.00    -0.233 A  
HETATM    8  H   UNL     1      -5.996  19.598  66.837  1.00  0.00     0.000 HD 
HETATM    9  C   UNL     1      -8.812  15.853  66.528  1.00  0.00    -0.340 A  
HETATM   10  C   UNL     1      -9.515  17.011  66.154  1.00  0.00    -0.253 A  
BRANCH   9  11
HETATM   11  C   UNL     1      -9.491  14.514  66.409  1.00  0.00    -0.291 C  
BRANCH  11  12
HETATM   12  N   UNL     1      -8.591  13.432  66.676  1.00  0.00    -0.442 N  
HETATM   13  C   UNL     1      -8.817  12.541  67.699  1.00  0.00    -0.179 C  
HETATM   14  H   UNL     1      -7.762  13.319  66.093  1.00  0.00     0.000 HD 
HETATM   15  O   UNL     1      -9.782  12.578  68.440  1.00  0.00    -0.221 OA 
BRANCH  13  16
HETATM   16  C   UNL     1      -7.688  11.558  67.857  1.00  0.00    -0.120 C  
BRANCH  16  17
HETATM   17  C   UNL     1      -6.469  11.897  67.010  1.00  0.00    -0.136 C  
BRANCH  17  18
HETATM   18  C   UNL     1      -6.108  10.803  65.994  1.00  0.00    -0.133 C  
BRANCH  18  19
HETATM   19  C   UNL     1      -6.919   9.504  66.093  1.00  0.00    -0.091 C  
BRANCH  19  20
HETATM   20  C   UNL     1      -7.428   8.984  64.775  1.00  0.00    -0.102 C  
HETATM   21  C   UNL     1      -8.453   9.486  64.064  1.00  0.00    -0.192 C  
HETATM   22  C   UNL     1      -9.205  10.761  64.359  1.00  0.00    -0.250 C  
HETATM   23  C   UNL     1     -10.442  10.502  65.216  1.00  0.00    -0.232 C  
HETATM   24  C   UNL     1      -9.588  11.453  63.053  1.00  0.00    -0.397 C  
ENDBRANCH  19  20
ENDBRANCH  18  19
ENDBRANCH  17  18
ENDBRANCH  16  17
ENDBRANCH  13  16
ENDBRANCH  11  12
ENDBRANCH   9  11
ENDBRANCH   2   3
TORSDOF 8
ENDMDL
MODEL      294
REMARK 921   NORMALIZED FREE ENERGY PREDICTED BY IDOCK:   -3.62 KCAL/MOL
REMARK 922        TOTAL FREE ENERGY PREDICTED BY IDOCK:   -6.52 KCAL/MOL
REMARK 923 INTER-LIGAND FREE ENERGY PREDICTED BY IDOCK:   -5.67 KCAL/MOL
REMARK 924 INTRA-LIGAND FREE ENERGY PREDICTED BY IDOCK:   -0.86 KCAL/MOL
REMARK 927      BINDING AFFINITY PREDICTED BY RF-SCORE:    0.00 PKD
ROOT
HETATM    1  C   UNL     1     -13.490  13.588  71.793  1.00  0.00    -0.380 C  
HETATM    2  O   UNL     1     -12.787  12.362  71.999  1.00  0.00    -0.275 OA 
ENDROOT
BRANCH   2   3
HETATM    3  C   UNL     1     -12.237  11.834  70.860  1.00  0.00    -0.276 A  
HETATM    4  C   UNL     1     -11.930  10.473  70.887  1.00  0.00    -0.377 A  
HETATM    5  O   UNL     1     -12.175   9.732  72.010  1.00  0.00    -0.343 OA 
HETATM    6  C   UNL     1     -11.337   9.841  69.797  1.00  0.00    -0.201 A  
HETATM    7  C   UNL     1     -11.041  10.589  68.657  1.00  0.00    -0.319 A  
HETATM    8  H   UNL     1     -11.967   8.806  72.029  1.00  0.00     0.000 HD 
HETATM    9  C   UNL     1     -11.359  11.952  68.596  1.00  0.00    -0.331 A  
HETATM   10  C   UNL     1     -11.982  12.562  69.698  1.00  0.00    -0.339 A  
BRANCH   9  11
HETATM   11  C   UNL     1     -10.974  12.799  67.413  1.00  0.00    -0.253 C  
BRANCH  11  12
HETATM   12  N   UNL     1     -10.266  12.043  66.422  1.00  0.00    -0.212 N  
HETATM   13  C   UNL     1     -10.838  11.722  65.213  1.00  0.00    -0.290 C  
HETATM   14  H   UNL     1      -9.313  11.736  66.617  1.00  0.00     0.000 HD 
HETATM   15  O   UNL     1     -11.960  12.053  64.877  1.00  0.00    -0.316 OA 
BRANCH  13  16
HETATM   16  C   UNL     1      -9.950  10.837  64.381  1.00  0.00    -0.400 C  
BRANCH  16  17
HETATM   17  C   UNL     1      -9.096   9.888  65.209  1.00  0.00    -0.256 C  
BRANCH  17  18
HETATM   18  C   UNL     1      -8.315   8.872  64.362  1.00  0.00    -0.176 C  
BRANCH  18  19
HETATM   19  C   UNL     1      -8.168   7.469  64.966  1.00  0.00    -0.105 C  
BRANCH  19  20
HETATM   20  C   UNL     1      -9.097   7.183  66.116  1.00  0.00    -0.155 C  
HETATM   21  C   UNL     1      -9.496   5.968  66.533  1.00  0.00    -0.177 C  
HETATM   22  C   UNL     1      -8.980   4.640  66.037  1.00  0.00    -0.123 C  
HETATM   23  C   UNL     1      -9.833   4.093  64.895  1.00  0.00    -0.202 C  
HETATM   24  C   UNL     1      -8.918   3.641  67.191  1.00  0.00    -0.162 C  
ENDBRANCH  19  20
ENDBRANCH  18  19
ENDBRANCH  17  18
ENDBRANCH  16  17
ENDBRANCH  13  16
ENDBRANCH  11  12
ENDBRANCH   9  11
ENDBRANCH   2   3
TORSDOF 8
ENDMDL
MODEL      295
REMARK 921   NORMALIZED FREE ENERGY PREDICTED BY IDOCK:   -3.60 KCAL/MOL
REMARK 922        TOTAL FREE ENERGY PREDICTED BY IDOCK:   -6.50 KCAL/MOL
REMARK 923 INTER-LIGAND FREE ENERGY PREDICTED BY IDOCK:   -5.43 KCAL/MOL
REMARK 924 INTRA-LIGAND FREE ENERGY PREDICTED BY IDOCK:   -1.07 KCAL/MOL
REMARK 927      BINDING AFFINITY PREDICTED BY RF-SCORE:    0.00 PKD
ROOT
HETATM    1  C   UNL     1     -10.681   8.424  67.305  1.00  0.00    -0.160 C  
HETATM    2  O   UNL     1      -9.828   7.614  66.494  1.00  0.00    -0.216 OA 
ENDROOT
BRANCH   2   3
HETATM    3  C   UNL     1      -9.437   6.443  67.088  1.00  0.00    -0.129 A  
HETATM    4  C   UNL     1     -10.074   5.279  66.655  1.00  0.00    -0.228 A  
HETATM    5  O   UNL     1     -11.038   5.339  65.687  1.00  0.00    -0.729 OA 
HETATM    6  C   UNL     1      -9.778   4.039  67.215  1.00  0.00    -0.199 A  
HETATM    7  C   UNL     1      -8.827   3.963  68.233  1.00  0.00    -0.143 A  
HETATM    8  H   UNL     1     -11.472   4.547  65.393  1.00  0.00     0.000 HD 
HETATM    9  C   UNL     1      -8.157   5.113  68.670  1.00  0.00    -0.086 A  
HETATM   10  C   UNL     1      -8.453   6.350  68.072  1.00  0.00    -0.118 A  
BRANCH   9  11
HETATM   11  C   UNL     1      -7.190   5.071  69.823  1.00  0.00    -0.055 C  
BRANCH  11  12
HETATM   12  N   UNL     1      -7.690   5.774  70.967  1.00  0.00    -0.099 N  
HETATM   13  C   UNL     1      -8.618   5.212  71.812  1.00  0.00    -0.130 C  
HETATM   14  H   UNL     1      -7.349   6.716  71.160  1.00  0.00     0.000 HD 
HETATM   15  O   UNL     1      -9.076   4.092  71.679  1.00  0.00    -0.113 OA 
BRANCH  13  16
HETATM   16  C   UNL     1      -9.073   6.173  72.877  1.00  0.00    -0.131 C  
BRANCH  16  17
HETATM   17  C   UNL     1     -10.427   6.804  72.584  1.00  0.00    -0.240 C  
BRANCH  17  18
HETATM   18  C   UNL     1     -10.470   7.566  71.251  1.00  0.00    -0.220 C  
BRANCH  18  19
HETATM   19  C   UNL     1      -9.981   9.020  71.296  1.00  0.00    -0.381 C  
BRANCH  19  20
HETATM   20  C   UNL     1     -10.722   9.957  70.379  1.00  0.00    -0.379 C  
HETATM   21  C   UNL     1     -11.897  10.557  70.637  1.00  0.00    -0.458 C  
HETATM   22  C   UNL     1     -12.640  10.540  71.951  1.00  0.00    -0.349 C  
HETATM   23  C   UNL     1     -13.658   9.403  72.009  1.00  0.00    -0.505 C  
HETATM   24  C   UNL     1     -13.322  11.887  72.182  1.00  0.00    -0.361 C  
ENDBRANCH  19  20
ENDBRANCH  18  19
ENDBRANCH  17  18
ENDBRANCH  16  17
ENDBRANCH  13  16
ENDBRANCH  11  12
ENDBRANCH   9  11
ENDBRANCH   2   3
TORSDOF 8
ENDMDL
MODEL      296
REMARK 921   NORMALIZED FREE ENERGY PREDICTED BY IDOCK:   -3.59 KCAL/MOL
REMARK 922        TOTAL FREE ENERGY PREDICTED BY IDOCK:   -6.49 KCAL/MOL
REMARK 923 INTER-LIGAND FREE ENERGY PREDICTED BY IDOCK:   -4.32 KCAL/MOL
REMARK 924 INTRA-LIGAND FREE ENERGY PREDICTED BY IDOCK:   -2.17 KCAL/MOL
REMARK 927      BINDING AFFINITY PREDICTED BY RF-SCORE:    0.00 PKD
ROOT
HETATM    1  C   UNL     1      -7.706   9.502  70.416  1.00  0.00    -0.163 C  
HETATM    2  O   UNL     1      -8.661   9.213  71.438  1.00  0.00    -0.309 OA 
ENDROOT
BRANCH   2   3
HETATM    3  C   UNL     1      -9.561   8.235  71.105  1.00  0.00    -0.163 A  
HETATM    4  C   UNL     1     -10.911   8.579  71.170  1.00  0.00    -0.253 A  
HETATM    5  O   UNL     1     -11.285   9.837  71.554  1.00  0.00    -0.360 OA 
HETATM    6  C   UNL     1     -11.911   7.653  70.884  1.00  0.00    -0.272 A  
HETATM    7  C   UNL     1     -11.549   6.352  70.532  1.00  0.00    -0.424 A  
HETATM    8  H   UNL     1     -12.205  10.072  71.597  1.00  0.00     0.000 HD 
HETATM    9  C   UNL     1     -10.201   5.987  70.437  1.00  0.00    -0.261 A  
HETATM   10  C   UNL     1      -9.209   6.947  70.703  1.00  0.00    -0.158 A  
BRANCH   9  11
HETATM   11  C   UNL     1      -9.787   4.570  70.141  1.00  0.00    -0.226 C  
BRANCH  11  12
HETATM   12  N   UNL     1      -8.662   4.515  69.255  1.00  0.00    -0.085 N  
HETATM   13  C   UNL     1      -8.693   3.779  68.094  1.00  0.00    -0.103 C  
HETATM   14  H   UNL     1      -7.817   5.035  69.491  1.00  0.00     0.000 HD 
HETATM   15  O   UNL     1      -9.656   3.138  67.714  1.00  0.00    -0.198 OA 
BRANCH  13  16
HETATM   16  C   UNL     1      -7.368   3.785  67.381  1.00  0.00    -0.067 C  
BRANCH  16  17
HETATM   17  C   UNL     1      -7.268   4.849  66.297  1.00  0.00    -0.077 C  
BRANCH  17  18
HETATM   18  C   UNL     1      -6.278   5.974  66.633  1.00  0.00    -0.030 C  
BRANCH  18  19
HETATM   19  C   UNL     1      -6.874   7.204  67.331  1.00  0.00    -0.070 C  
BRANCH  19  20
HETATM   20  C   UNL     1      -7.514   8.200  66.402  1.00  0.00    -0.087 C  
HETATM   21  C   UNL     1      -8.810   8.559  66.390  1.00  0.00    -0.178 C  
HETATM   22  C   UNL     1      -9.857   8.156  67.399  1.00  0.00    -0.242 C  
HETATM   23  C   UNL     1     -10.609   6.900  66.962  1.00  0.00    -0.403 C  
HETATM   24  C   UNL     1     -10.828   9.311  67.633  1.00  0.00    -0.188 C  
ENDBRANCH  19  20
ENDBRANCH  18  19
ENDBRANCH  17  18
ENDBRANCH  16  17
ENDBRANCH  13  16
ENDBRANCH  11  12
ENDBRANCH   9  11
ENDBRANCH   2   3
TORSDOF 8
ENDMDL
MODEL      297
REMARK 921   NORMALIZED FREE ENERGY PREDICTED BY IDOCK:   -3.59 KCAL/MOL
REMARK 922        TOTAL FREE ENERGY PREDICTED BY IDOCK:   -6.48 KCAL/MOL
REMARK 923 INTER-LIGAND FREE ENERGY PREDICTED BY IDOCK:   -5.17 KCAL/MOL
REMARK 924 INTRA-LIGAND FREE ENERGY PREDICTED BY IDOCK:   -1.31 KCAL/MOL
REMARK 927      BINDING AFFINITY PREDICTED BY RF-SCORE:    0.00 PKD
ROOT
HETATM    1  C   UNL     1      -5.733  10.928  68.117  1.00  0.00    -0.046 C  
HETATM    2  O   UNL     1      -6.270  11.081  66.802  1.00  0.00    -0.086 OA 
ENDROOT
BRANCH   2   3
HETATM    3  C   UNL     1      -7.361  10.292  66.547  1.00  0.00    -0.113 A  
HETATM    4  C   UNL     1      -7.622   9.999  65.208  1.00  0.00    -0.137 A  
HETATM    5  O   UNL     1      -6.812  10.493  64.223  1.00  0.00    -0.328 OA 
HETATM    6  C   UNL     1      -8.724   9.234  64.834  1.00  0.00    -0.224 A  
HETATM    7  C   UNL     1      -9.586   8.756  65.822  1.00  0.00    -0.190 A  
HETATM    8  H   UNL     1      -6.990  10.294  63.311  1.00  0.00     0.000 HD 
HETATM    9  C   UNL     1      -9.333   9.017  67.175  1.00  0.00    -0.184 A  
HETATM   10  C   UNL     1      -8.200   9.768  67.531  1.00  0.00    -0.114 A  
BRANCH   9  11
HETATM   11  C   UNL     1     -10.292   8.585  68.252  1.00  0.00    -0.201 C  
BRANCH  11  12
HETATM   12  N   UNL     1     -11.048   9.687  68.769  1.00  0.00    -0.450 N  
HETATM   13  C   UNL     1     -10.868  10.147  70.053  1.00  0.00    -0.307 C  
HETATM   14  H   UNL     1     -11.737  10.142  68.170  1.00  0.00     0.000 HD 
HETATM   15  O   UNL     1     -10.064   9.685  70.840  1.00  0.00    -0.279 OA 
BRANCH  13  16
HETATM   16  C   UNL     1     -11.843  11.237  70.407  1.00  0.00    -0.443 C  
BRANCH  16  17
HETATM   17  C   UNL     1     -12.101  12.213  69.267  1.00  0.00    -0.234 C  
BRANCH  17  18
HETATM   18  C   UNL     1     -10.921  13.158  68.995  1.00  0.00    -0.241 C  
BRANCH  18  19
HETATM   19  C   UNL     1     -10.201  12.961  67.654  1.00  0.00    -0.220 C  
BRANCH  19  20
HETATM   20  C   UNL     1      -8.942  13.771  67.495  1.00  0.00    -0.201 C  
HETATM   21  C   UNL     1      -8.869  15.061  67.122  1.00  0.00    -0.233 C  
HETATM   22  C   UNL     1     -10.031  16.004  66.935  1.00  0.00    -0.255 C  
HETATM   23  C   UNL     1     -10.516  16.024  65.487  1.00  0.00    -0.426 C  
HETATM   24  C   UNL     1      -9.641  17.408  67.393  1.00  0.00    -0.257 C  
ENDBRANCH  19  20
ENDBRANCH  18  19
ENDBRANCH  17  18
ENDBRANCH  16  17
ENDBRANCH  13  16
ENDBRANCH  11  12
ENDBRANCH   9  11
ENDBRANCH   2   3
TORSDOF 8
ENDMDL
MODEL      298
REMARK 921   NORMALIZED FREE ENERGY PREDICTED BY IDOCK:   -3.58 KCAL/MOL
REMARK 922        TOTAL FREE ENERGY PREDICTED BY IDOCK:   -6.47 KCAL/MOL
REMARK 923 INTER-LIGAND FREE ENERGY PREDICTED BY IDOCK:   -6.53 KCAL/MOL
REMARK 924 INTRA-LIGAND FREE ENERGY PREDICTED BY IDOCK:    0.06 KCAL/MOL
REMARK 927      BINDING AFFINITY PREDICTED BY RF-SCORE:    0.00 PKD
ROOT
HETATM    1  C   UNL     1      -6.822  16.330  69.045  1.00  0.00    -0.182 C  
HETATM    2  O   UNL     1      -6.926  16.191  67.627  1.00  0.00    -0.126 OA 
ENDROOT
BRANCH   2   3
HETATM    3  C   UNL     1      -8.103  16.657  67.104  1.00  0.00    -0.182 A  
HETATM    4  C   UNL     1      -8.441  17.977  67.402  1.00  0.00    -0.240 A  
HETATM    5  O   UNL     1      -7.618  18.741  68.183  1.00  0.00    -0.257 OA 
HETATM    6  C   UNL     1      -9.631  18.541  66.950  1.00  0.00    -0.314 A  
HETATM    7  C   UNL     1     -10.504  17.765  66.187  1.00  0.00    -0.301 A  
HETATM    8  H   UNL     1      -7.848  19.640  68.386  1.00  0.00     0.000 HD 
HETATM    9  C   UNL     1     -10.178  16.444  65.854  1.00  0.00    -0.379 A  
HETATM   10  C   UNL     1      -8.959  15.904  66.299  1.00  0.00    -0.381 A  
BRANCH   9  11
HETATM   11  C   UNL     1     -11.139  15.560  65.105  1.00  0.00    -0.374 C  
BRANCH  11  12
HETATM   12  N   UNL     1     -10.527  14.332  64.693  1.00  0.00    -0.565 N  
HETATM   13  C   UNL     1     -11.254  13.325  64.103  1.00  0.00    -0.379 C  
HETATM   14  H   UNL     1      -9.527  14.201  64.842  1.00  0.00     0.000 HD 
HETATM   15  O   UNL     1     -12.447  13.388  63.867  1.00  0.00    -0.658 OA 
BRANCH  13  16
HETATM   16  C   UNL     1     -10.424  12.094  63.856  1.00  0.00    -0.442 C  
BRANCH  16  17
HETATM   17  C   UNL     1      -9.603  11.666  65.064  1.00  0.00    -0.187 C  
BRANCH  17  18
HETATM   18  C   UNL     1     -10.351  10.707  66.002  1.00  0.00    -0.290 C  
BRANCH  18  19
HETATM   19  C   UNL     1      -9.901   9.240  65.956  1.00  0.00    -0.363 C  
BRANCH  19  20
HETATM   20  C   UNL     1     -10.648   8.328  66.893  1.00  0.00    -0.302 C  
HETATM   21  C   UNL     1     -10.139   7.707  67.972  1.00  0.00    -0.226 C  
HETATM   22  C   UNL     1      -8.763   7.914  68.555  1.00  0.00    -0.131 C  
HETATM   23  C   UNL     1      -7.754   6.913  67.995  1.00  0.00    -0.113 C  
HETATM   24  C   UNL     1      -8.824   7.823  70.078  1.00  0.00    -0.142 C  
ENDBRANCH  19  20
ENDBRANCH  18  19
ENDBRANCH  17  18
ENDBRANCH  16  17
ENDBRANCH  13  16
ENDBRANCH  11  12
ENDBRANCH   9  11
ENDBRANCH   2   3
TORSDOF 8
ENDMDL
MODEL      299
REMARK 921   NORMALIZED FREE ENERGY PREDICTED BY IDOCK:   -3.58 KCAL/MOL
REMARK 922        TOTAL FREE ENERGY PREDICTED BY IDOCK:   -6.47 KCAL/MOL
REMARK 923 INTER-LIGAND FREE ENERGY PREDICTED BY IDOCK:   -5.80 KCAL/MOL
REMARK 924 INTRA-LIGAND FREE ENERGY PREDICTED BY IDOCK:   -0.67 KCAL/MOL
REMARK 927      BINDING AFFINITY PREDICTED BY RF-SCORE:    0.00 PKD
ROOT
HETATM    1  C   UNL     1     -10.847   5.847  66.874  1.00  0.00    -0.296 C  
HETATM    2  O   UNL     1      -9.556   5.835  67.487  1.00  0.00    -0.111 OA 
ENDROOT
BRANCH   2   3
HETATM    3  C   UNL     1      -8.815   6.964  67.255  1.00  0.00    -0.118 A  
HETATM    4  C   UNL     1      -7.956   7.369  68.277  1.00  0.00    -0.124 A  
HETATM    5  O   UNL     1      -7.881   6.654  69.440  1.00  0.00    -0.108 OA 
HETATM    6  C   UNL     1      -7.182   8.520  68.160  1.00  0.00    -0.087 A  
HETATM    7  C   UNL     1      -7.275   9.286  66.997  1.00  0.00    -0.087 A  
HETATM    8  H   UNL     1      -7.296   6.929  70.135  1.00  0.00     0.000 HD 
HETATM    9  C   UNL     1      -8.113   8.890  65.948  1.00  0.00    -0.109 A  
HETATM   10  C   UNL     1      -8.864   7.709  66.077  1.00  0.00    -0.186 A  
BRANCH   9  11
HETATM   11  C   UNL     1      -8.295   9.742  64.720  1.00  0.00    -0.155 C  
BRANCH  11  12
HETATM   12  N   UNL     1      -9.440  10.597  64.826  1.00  0.00    -0.233 N  
HETATM   13  C   UNL     1     -10.125  11.028  63.715  1.00  0.00    -0.363 C  
HETATM   14  H   UNL     1      -9.755  10.893  65.750  1.00  0.00     0.000 HD 
HETATM   15  O   UNL     1      -9.840  10.721  62.572  1.00  0.00    -0.200 OA 
BRANCH  13  16
HETATM   16  C   UNL     1     -11.221  11.999  64.064  1.00  0.00    -0.468 C  
BRANCH  16  17
HETATM   17  C   UNL     1     -11.143  12.510  65.496  1.00  0.00    -0.336 C  
BRANCH  17  18
HETATM   18  C   UNL     1     -11.820  13.874  65.695  1.00  0.00    -0.383 C  
BRANCH  18  19
HETATM   19  C   UNL     1     -12.025  14.313  67.151  1.00  0.00    -0.449 C  
BRANCH  19  20
HETATM   20  C   UNL     1     -11.540  13.323  68.177  1.00  0.00    -0.373 C  
HETATM   21  C   UNL     1     -11.701  13.414  69.509  1.00  0.00    -0.385 C  
HETATM   22  C   UNL     1     -12.528  14.443  70.240  1.00  0.00    -0.413 C  
HETATM   23  C   UNL     1     -11.690  15.651  70.655  1.00  0.00    -0.398 C  
HETATM   24  C   UNL     1     -13.195  13.806  71.457  1.00  0.00    -0.417 C  
ENDBRANCH  19  20
ENDBRANCH  18  19
ENDBRANCH  17  18
ENDBRANCH  16  17
ENDBRANCH  13  16
ENDBRANCH  11  12
ENDBRANCH   9  11
ENDBRANCH   2   3
TORSDOF 8
ENDMDL
MODEL      300
REMARK 921   NORMALIZED FREE ENERGY PREDICTED BY IDOCK:   -3.56 KCAL/MOL
REMARK 922        TOTAL FREE ENERGY PREDICTED BY IDOCK:   -6.43 KCAL/MOL
REMARK 923 INTER-LIGAND FREE ENERGY PREDICTED BY IDOCK:   -5.42 KCAL/MOL
REMARK 924 INTRA-LIGAND FREE ENERGY PREDICTED BY IDOCK:   -1.02 KCAL/MOL
REMARK 927      BINDING AFFINITY PREDICTED BY RF-SCORE:    0.00 PKD
ROOT
HETATM    1  C   UNL     1     -11.590  15.845  64.290  1.00  0.00    -0.178 C  
HETATM    2  O   UNL     1     -10.515  16.330  65.097  1.00  0.00    -0.591 OA 
ENDROOT
BRANCH   2   3
HETATM    3  C   UNL     1     -10.706  16.160  66.444  1.00  0.00    -0.211 A  
HETATM    4  C   UNL     1     -10.263  17.191  67.272  1.00  0.00    -0.316 A  
HETATM    5  O   UNL     1      -9.670  18.301  66.737  1.00  0.00    -0.294 OA 
HETATM    6  C   UNL     1     -10.376  17.108  68.658  1.00  0.00    -0.359 A  
HETATM    7  C   UNL     1     -10.939  15.965  69.225  1.00  0.00    -0.293 A  
HETATM    8  H   UNL     1      -9.369  19.003  67.301  1.00  0.00     0.000 HD 
HETATM    9  C   UNL     1     -11.412  14.925  68.415  1.00  0.00    -0.338 A  
HETATM   10  C   UNL     1     -11.313  15.043  67.018  1.00  0.00    -0.319 A  
BRANCH   9  11
HETATM   11  C   UNL     1     -11.947  13.647  69.005  1.00  0.00    -0.353 C  
BRANCH  11  12
HETATM   12  N   UNL     1     -11.816  12.544  68.099  1.00  0.00    -0.341 N  
HETATM   13  C   UNL     1     -11.040  11.450  68.401  1.00  0.00    -0.242 C  
HETATM   14  H   UNL     1     -12.312  12.571  67.208  1.00  0.00     0.000 HD 
HETATM   15  O   UNL     1     -10.422  11.314  69.441  1.00  0.00    -0.168 OA 
BRANCH  13  16
HETATM   16  C   UNL     1     -10.969  10.472  67.260  1.00  0.00    -0.325 C  
BRANCH  16  17
HETATM   17  C   UNL     1     -10.798  11.138  65.902  1.00  0.00    -0.223 C  
BRANCH  17  18
HETATM   18  C   UNL     1      -9.525  10.699  65.162  1.00  0.00    -0.276 C  
BRANCH  18  19
HETATM   19  C   UNL     1      -9.408   9.197  64.867  1.00  0.00    -0.050 C  
BRANCH  19  20
HETATM   20  C   UNL     1      -8.019   8.637  65.021  1.00  0.00    -0.131 C  
HETATM   21  C   UNL     1      -7.455   8.211  66.165  1.00  0.00    -0.078 C  
HETATM   22  C   UNL     1      -8.145   8.063  67.499  1.00  0.00    -0.123 C  
HETATM   23  C   UNL     1      -7.996   9.319  68.355  1.00  0.00    -0.102 C  
HETATM   24  C   UNL     1      -7.600   6.841  68.235  1.00  0.00    -0.107 C  
ENDBRANCH  19  20
ENDBRANCH  18  19
ENDBRANCH  17  18
ENDBRANCH  16  17
ENDBRANCH  13  16
ENDBRANCH  11  12
ENDBRANCH   9  11
ENDBRANCH   2   3
TORSDOF 8
ENDMDL
MODEL      301
REMARK 921   NORMALIZED FREE ENERGY PREDICTED BY IDOCK:   -3.55 KCAL/MOL
REMARK 922        TOTAL FREE ENERGY PREDICTED BY IDOCK:   -6.42 KCAL/MOL
REMARK 923 INTER-LIGAND FREE ENERGY PREDICTED BY IDOCK:   -4.97 KCAL/MOL
REMARK 924 INTRA-LIGAND FREE ENERGY PREDICTED BY IDOCK:   -1.45 KCAL/MOL
REMARK 927      BINDING AFFINITY PREDICTED BY RF-SCORE:    0.00 PKD
ROOT
HETATM    1  C   UNL     1     -11.808   7.663  72.383  1.00  0.00    -0.289 C  
HETATM    2  O   UNL     1     -10.680   8.451  71.998  1.00  0.00    -0.267 OA 
ENDROOT
BRANCH   2   3
HETATM    3  C   UNL     1     -10.903   9.255  70.912  1.00  0.00    -0.296 A  
HETATM    4  C   UNL     1     -10.387   8.815  69.692  1.00  0.00    -0.213 A  
HETATM    5  O   UNL     1      -9.696   7.637  69.620  1.00  0.00    -0.170 OA 
HETATM    6  C   UNL     1     -10.526   9.570  68.531  1.00  0.00    -0.247 A  
HETATM    7  C   UNL     1     -11.192  10.795  68.593  1.00  0.00    -0.333 A  
HETATM    8  H   UNL     1      -9.345   7.338  68.790  1.00  0.00     0.000 HD 
HETATM    9  C   UNL     1     -11.739  11.249  69.800  1.00  0.00    -0.422 A  
HETATM   10  C   UNL     1     -11.610  10.457  70.954  1.00  0.00    -0.428 A  
BRANCH   9  11
HETATM   11  C   UNL     1     -12.387  12.603  69.911  1.00  0.00    -0.057 C  
BRANCH  11  12
HETATM   12  N   UNL     1     -11.478  13.660  69.581  1.00  0.00    -0.395 N  
HETATM   13  C   UNL     1     -11.567  14.344  68.391  1.00  0.00    -0.319 C  
HETATM   14  H   UNL     1     -10.746  13.913  70.245  1.00  0.00     0.000 HD 
HETATM   15  O   UNL     1     -12.410  14.130  67.539  1.00  0.00    -0.296 OA 
BRANCH  13  16
HETATM   16  C   UNL     1     -10.446  15.333  68.218  1.00  0.00    -0.244 C  
BRANCH  16  17
HETATM   17  C   UNL     1      -9.203  14.985  69.025  1.00  0.00    -0.205 C  
BRANCH  17  18
HETATM   18  C   UNL     1      -7.890  15.278  68.283  1.00  0.00    -0.116 C  
BRANCH  18  19
HETATM   19  C   UNL     1      -7.134  14.053  67.752  1.00  0.00    -0.183 C  
BRANCH  19  20
HETATM   20  C   UNL     1      -7.948  12.788  67.705  1.00  0.00    -0.157 C  
HETATM   21  C   UNL     1      -7.579  11.587  68.185  1.00  0.00    -0.113 C  
HETATM   22  C   UNL     1      -6.345  11.292  69.002  1.00  0.00    -0.060 C  
HETATM   23  C   UNL     1      -5.174  10.859  68.122  1.00  0.00    -0.036 C  
HETATM   24  C   UNL     1      -6.656  10.224  70.049  1.00  0.00    -0.127 C  
ENDBRANCH  19  20
ENDBRANCH  18  19
ENDBRANCH  17  18
ENDBRANCH  16  17
ENDBRANCH  13  16
ENDBRANCH  11  12
ENDBRANCH   9  11
ENDBRANCH   2   3
TORSDOF 8
ENDMDL
MODEL      302
REMARK 921   NORMALIZED FREE ENERGY PREDICTED BY IDOCK:   -3.54 KCAL/MOL
REMARK 922        TOTAL FREE ENERGY PREDICTED BY IDOCK:   -6.41 KCAL/MOL
REMARK 923 INTER-LIGAND FREE ENERGY PREDICTED BY IDOCK:   -5.36 KCAL/MOL
REMARK 924 INTRA-LIGAND FREE ENERGY PREDICTED BY IDOCK:   -1.05 KCAL/MOL
REMARK 927      BINDING AFFINITY PREDICTED BY RF-SCORE:    0.00 PKD
ROOT
HETATM    1  C   UNL     1     -12.422  13.228  63.086  1.00  0.00     0.031 C  
HETATM    2  O   UNL     1     -12.947  12.530  64.217  1.00  0.00    -0.748 OA 
ENDROOT
BRANCH   2   3
HETATM    3  C   UNL     1     -12.041  12.334  65.225  1.00  0.00    -0.297 A  
HETATM    4  C   UNL     1     -12.072  13.246  66.280  1.00  0.00    -0.414 A  
HETATM    5  O   UNL     1     -12.974  14.275  66.277  1.00  0.00    -0.437 OA 
HETATM    6  C   UNL     1     -11.173  13.161  67.341  1.00  0.00    -0.319 A  
HETATM    7  C   UNL     1     -10.219  12.143  67.341  1.00  0.00    -0.211 A  
HETATM    8  H   UNL     1     -12.995  14.896  66.996  1.00  0.00     0.000 HD 
HETATM    9  C   UNL     1     -10.180  11.201  66.305  1.00  0.00    -0.286 A  
HETATM   10  C   UNL     1     -11.115  11.291  65.259  1.00  0.00    -0.146 A  
BRANCH   9  11
HETATM   11  C   UNL     1      -9.108  10.146  66.239  1.00  0.00    -0.154 C  
BRANCH  11  12
HETATM   12  N   UNL     1      -9.660   8.825  66.196  1.00  0.00    -0.292 N  
HETATM   13  C   UNL     1      -8.927   7.723  66.571  1.00  0.00    -0.161 C  
HETATM   14  H   UNL     1     -10.621   8.698  65.879  1.00  0.00     0.000 HD 
HETATM   15  O   UNL     1      -7.781   7.769  66.978  1.00  0.00    -0.100 OA 
BRANCH  13  16
HETATM   16  C   UNL     1      -9.675   6.438  66.341  1.00  0.00    -0.140 C  
BRANCH  16  17
HETATM   17  C   UNL     1     -10.845   6.240  67.295  1.00  0.00    -0.457 C  
BRANCH  17  18
HETATM   18  C   UNL     1     -10.641   5.080  68.280  1.00  0.00     0.095 C  
BRANCH  18  19
HETATM   19  C   UNL     1     -10.450   5.477  69.750  1.00  0.00    -0.389 C  
BRANCH  19  20
HETATM   20  C   UNL     1      -9.014   5.631  70.176  1.00  0.00    -0.151 C  
HETATM   21  C   UNL     1      -8.473   6.708  70.772  1.00  0.00    -0.134 C  
HETATM   22  C   UNL     1      -9.218   7.919  71.276  1.00  0.00    -0.170 C  
HETATM   23  C   UNL     1      -9.279   9.024  70.223  1.00  0.00    -0.229 C  
HETATM   24  C   UNL     1      -8.571   8.433  72.560  1.00  0.00    -0.253 C  
ENDBRANCH  19  20
ENDBRANCH  18  19
ENDBRANCH  17  18
ENDBRANCH  16  17
ENDBRANCH  13  16
ENDBRANCH  11  12
ENDBRANCH   9  11
ENDBRANCH   2   3
TORSDOF 8
ENDMDL
MODEL      303
REMARK 921   NORMALIZED FREE ENERGY PREDICTED BY IDOCK:   -3.53 KCAL/MOL
REMARK 922        TOTAL FREE ENERGY PREDICTED BY IDOCK:   -6.39 KCAL/MOL
REMARK 923 INTER-LIGAND FREE ENERGY PREDICTED BY IDOCK:   -5.45 KCAL/MOL
REMARK 924 INTRA-LIGAND FREE ENERGY PREDICTED BY IDOCK:   -0.95 KCAL/MOL
REMARK 927      BINDING AFFINITY PREDICTED BY RF-SCORE:    0.00 PKD
ROOT
HETATM    1  C   UNL     1      -8.037   8.768  68.700  1.00  0.00    -0.116 C  
HETATM    2  O   UNL     1      -9.004   9.139  69.684  1.00  0.00    -0.141 OA 
ENDROOT
BRANCH   2   3
HETATM    3  C   UNL     1      -9.835  10.157  69.297  1.00  0.00    -0.220 A  
HETATM    4  C   UNL     1     -10.914  10.437  70.136  1.00  0.00    -0.300 A  
HETATM    5  O   UNL     1     -11.105   9.712  71.279  1.00  0.00    -0.346 OA 
HETATM    6  C   UNL     1     -11.840  11.428  69.821  1.00  0.00    -0.435 A  
HETATM    7  C   UNL     1     -11.685  12.151  68.637  1.00  0.00    -0.382 A  
HETATM    8  H   UNL     1     -11.840   9.903  71.851  1.00  0.00     0.000 HD 
HETATM    9  C   UNL     1     -10.598  11.905  67.789  1.00  0.00    -0.233 A  
HETATM   10  C   UNL     1      -9.661  10.918  68.141  1.00  0.00    -0.169 A  
BRANCH   9  11
HETATM   11  C   UNL     1     -10.455  12.611  66.467  1.00  0.00    -0.247 C  
BRANCH  11  12
HETATM   12  N   UNL     1     -10.116  13.993  66.632  1.00  0.00    -0.270 N  
HETATM   13  C   UNL     1      -8.829  14.393  66.905  1.00  0.00    -0.223 C  
HETATM   14  H   UNL     1     -10.848  14.698  66.545  1.00  0.00     0.000 HD 
HETATM   15  O   UNL     1      -7.884  13.634  67.013  1.00  0.00    -0.067 OA 
BRANCH  13  16
HETATM   16  C   UNL     1      -8.734  15.876  67.142  1.00  0.00    -0.223 C  
BRANCH  16  17
HETATM   17  C   UNL     1      -8.861  16.263  68.609  1.00  0.00    -0.226 C  
BRANCH  17  18
HETATM   18  C   UNL     1      -7.508  16.434  69.316  1.00  0.00    -0.202 C  
BRANCH  18  19
HETATM   19  C   UNL     1      -6.696  17.673  68.917  1.00  0.00    -0.236 C  
BRANCH  19  20
HETATM   20  C   UNL     1      -7.459  18.969  68.986  1.00  0.00    -0.332 C  
HETATM   21  C   UNL     1      -7.959  19.654  67.942  1.00  0.00    -0.335 C  
HETATM   22  C   UNL     1      -7.994  19.194  66.506  1.00  0.00    -0.296 C  
HETATM   23  C   UNL     1      -6.770  19.675  65.728  1.00  0.00    -0.283 C  
HETATM   24  C   UNL     1      -9.280  19.672  65.836  1.00  0.00    -0.166 C  
ENDBRANCH  19  20
ENDBRANCH  18  19
ENDBRANCH  17  18
ENDBRANCH  16  17
ENDBRANCH  13  16
ENDBRANCH  11  12
ENDBRANCH   9  11
ENDBRANCH   2   3
TORSDOF 8
ENDMDL
MODEL      304
REMARK 921   NORMALIZED FREE ENERGY PREDICTED BY IDOCK:   -3.52 KCAL/MOL
REMARK 922        TOTAL FREE ENERGY PREDICTED BY IDOCK:   -6.38 KCAL/MOL
REMARK 923 INTER-LIGAND FREE ENERGY PREDICTED BY IDOCK:   -4.83 KCAL/MOL
REMARK 924 INTRA-LIGAND FREE ENERGY PREDICTED BY IDOCK:   -1.56 KCAL/MOL
REMARK 927      BINDING AFFINITY PREDICTED BY RF-SCORE:    0.00 PKD
ROOT
HETATM    1  C   UNL     1     -10.791   4.564  72.750  1.00  0.00    -0.162 C  
HETATM    2  O   UNL     1     -11.290   5.772  73.326  1.00  0.00    -0.213 OA 
ENDROOT
BRANCH   2   3
HETATM    3  C   UNL     1     -10.971   6.903  72.622  1.00  0.00    -0.268 A  
HETATM    4  C   UNL     1     -12.029   7.587  72.024  1.00  0.00    -0.294 A  
HETATM    5  O   UNL     1     -13.310   7.125  72.152  1.00  0.00    -0.525 OA 
HETATM    6  C   UNL     1     -11.814   8.729  71.257  1.00  0.00    -0.358 A  
HETATM    7  C   UNL     1     -10.510   9.192  71.080  1.00  0.00    -0.385 A  
HETATM    8  H   UNL     1     -14.031   7.591  71.746  1.00  0.00     0.000 HD 
HETATM    9  C   UNL     1      -9.432   8.537  71.688  1.00  0.00    -0.316 A  
HETATM   10  C   UNL     1      -9.676   7.402  72.480  1.00  0.00    -0.202 A  
BRANCH   9  11
HETATM   11  C   UNL     1      -8.010   8.966  71.444  1.00  0.00    -0.102 C  
BRANCH  11  12
HETATM   12  N   UNL     1      -7.576   8.652  70.115  1.00  0.00    -0.065 N  
HETATM   13  C   UNL     1      -6.945   7.465  69.823  1.00  0.00    -0.056 C  
HETATM   14  H   UNL     1      -7.739   9.325  69.367  1.00  0.00     0.000 HD 
HETATM   15  O   UNL     1      -6.717   6.591  70.639  1.00  0.00    -0.054 OA 
BRANCH  13  16
HETATM   16  C   UNL     1      -6.487   7.402  68.391  1.00  0.00    -0.045 C  
BRANCH  16  17
HETATM   17  C   UNL     1      -7.079   8.500  67.518  1.00  0.00    -0.080 C  
BRANCH  17  18
HETATM   18  C   UNL     1      -7.741   7.972  66.237  1.00  0.00    -0.091 C  
BRANCH  18  19
HETATM   19  C   UNL     1      -9.135   8.532  65.924  1.00  0.00    -0.237 C  
BRANCH  19  20
HETATM   20  C   UNL     1     -10.091   8.515  67.086  1.00  0.00    -0.331 C  
HETATM   21  C   UNL     1     -10.462   9.574  67.827  1.00  0.00    -0.309 C  
HETATM   22  C   UNL     1     -10.119  11.018  67.556  1.00  0.00    -0.208 C  
HETATM   23  C   UNL     1      -8.851  11.446  68.292  1.00  0.00    -0.167 C  
HETATM   24  C   UNL     1     -11.294  11.914  67.940  1.00  0.00    -0.358 C  
ENDBRANCH  19  20
ENDBRANCH  18  19
ENDBRANCH  17  18
ENDBRANCH  16  17
ENDBRANCH  13  16
ENDBRANCH  11  12
ENDBRANCH   9  11
ENDBRANCH   2   3
TORSDOF 8
ENDMDL
MODEL      305
REMARK 921   NORMALIZED FREE ENERGY PREDICTED BY IDOCK:   -3.52 KCAL/MOL
REMARK 922        TOTAL FREE ENERGY PREDICTED BY IDOCK:   -6.38 KCAL/MOL
REMARK 923 INTER-LIGAND FREE ENERGY PREDICTED BY IDOCK:   -5.70 KCAL/MOL
REMARK 924 INTRA-LIGAND FREE ENERGY PREDICTED BY IDOCK:   -0.68 KCAL/MOL
REMARK 927      BINDING AFFINITY PREDICTED BY RF-SCORE:    0.00 PKD
ROOT
HETATM    1  C   UNL     1     -11.638  15.898  64.475  1.00  0.00    -0.232 C  
HETATM    2  O   UNL     1     -11.120  17.225  64.578  1.00  0.00    -1.082 OA 
ENDROOT
BRANCH   2   3
HETATM    3  C   UNL     1     -10.727  17.575  65.843  1.00  0.00    -0.119 A  
HETATM    4  C   UNL     1     -10.705  18.939  66.136  1.00  0.00    -0.289 A  
HETATM    5  O   UNL     1     -11.062  19.855  65.185  1.00  0.00    -0.329 OA 
HETATM    6  C   UNL     1     -10.289  19.408  67.379  1.00  0.00    -0.559 A  
HETATM    7  C   UNL     1      -9.881  18.491  68.349  1.00  0.00    -0.404 A  
HETATM    8  H   UNL     1     -11.047  20.784  65.384  1.00  0.00     0.000 HD 
HETATM    9  C   UNL     1      -9.914  17.116  68.088  1.00  0.00    -0.297 A  
HETATM   10  C   UNL     1     -10.364  16.664  66.835  1.00  0.00    -0.299 A  
BRANCH   9  11
HETATM   11  C   UNL     1      -9.401  16.112  69.086  1.00  0.00    -0.238 C  
BRANCH  11  12
HETATM   12  N   UNL     1      -9.083  14.858  68.469  1.00  0.00    -0.184 N  
HETATM   13  C   UNL     1      -7.782  14.466  68.258  1.00  0.00    -0.129 C  
HETATM   14  H   UNL     1      -9.841  14.241  68.178  1.00  0.00     0.000 HD 
HETATM   15  O   UNL     1      -6.808  15.121  68.581  1.00  0.00    -0.100 OA 
BRANCH  13  16
HETATM   16  C   UNL     1      -7.695  13.168  67.502  1.00  0.00    -0.168 C  
BRANCH  16  17
HETATM   17  C   UNL     1      -7.648  11.943  68.406  1.00  0.00    -0.120 C  
BRANCH  17  18
HETATM   18  C   UNL     1      -8.072  10.647  67.700  1.00  0.00    -0.107 C  
BRANCH  18  19
HETATM   19  C   UNL     1      -7.841  10.604  66.184  1.00  0.00    -0.152 C  
BRANCH  19  20
HETATM   20  C   UNL     1      -9.006  10.077  65.389  1.00  0.00    -0.213 C  
HETATM   21  C   UNL     1      -8.971   9.654  64.113  1.00  0.00    -0.269 C  
HETATM   22  C   UNL     1      -7.737   9.475  63.264  1.00  0.00    -0.127 C  
HETATM   23  C   UNL     1      -7.429  10.725  62.443  1.00  0.00    -0.138 C  
HETATM   24  C   UNL     1      -7.901   8.260  62.354  1.00  0.00    -0.144 C  
ENDBRANCH  19  20
ENDBRANCH  18  19
ENDBRANCH  17  18
ENDBRANCH  16  17
ENDBRANCH  13  16
ENDBRANCH  11  12
ENDBRANCH   9  11
ENDBRANCH   2   3
TORSDOF 8
ENDMDL
MODEL      306
REMARK 921   NORMALIZED FREE ENERGY PREDICTED BY IDOCK:   -3.50 KCAL/MOL
REMARK 922        TOTAL FREE ENERGY PREDICTED BY IDOCK:   -6.36 KCAL/MOL
REMARK 923 INTER-LIGAND FREE ENERGY PREDICTED BY IDOCK:   -5.63 KCAL/MOL
REMARK 924 INTRA-LIGAND FREE ENERGY PREDICTED BY IDOCK:   -0.73 KCAL/MOL
REMARK 927      BINDING AFFINITY PREDICTED BY RF-SCORE:    0.00 PKD
ROOT
HETATM    1  C   UNL     1      -5.828   6.663  70.444  1.00  0.00    -0.023 C  
HETATM    2  O   UNL     1      -6.491   7.418  71.459  1.00  0.00    -0.040 OA 
ENDROOT
BRANCH   2   3
HETATM    3  C   UNL     1      -7.809   7.086  71.633  1.00  0.00    -0.098 A  
HETATM    4  C   UNL     1      -8.143   6.462  72.835  1.00  0.00    -0.106 A  
HETATM    5  O   UNL     1      -7.179   6.207  73.771  1.00  0.00    -0.084 OA 
HETATM    6  C   UNL     1      -9.446   6.052  73.102  1.00  0.00    -0.142 A  
HETATM    7  C   UNL     1     -10.436   6.265  72.141  1.00  0.00    -0.228 A  
HETATM    8  H   UNL     1      -7.407   5.783  74.590  1.00  0.00     0.000 HD 
HETATM    9  C   UNL     1     -10.131   6.909  70.935  1.00  0.00    -0.207 A  
HETATM   10  C   UNL     1      -8.814   7.340  70.699  1.00  0.00    -0.148 A  
BRANCH   9  11
HETATM   11  C   UNL     1     -11.161   7.076  69.849  1.00  0.00    -0.264 C  
BRANCH  11  12
HETATM   12  N   UNL     1     -10.929   8.255  69.069  1.00  0.00    -0.429 N  
HETATM   13  C   UNL     1     -10.760   8.197  67.705  1.00  0.00    -0.096 C  
HETATM   14  H   UNL     1     -10.889   9.161  69.536  1.00  0.00     0.000 HD 
HETATM   15  O   UNL     1     -10.806   7.171  67.052  1.00  0.00    -0.351 OA 
BRANCH  13  16
HETATM   16  C   UNL     1     -10.425   9.540  67.116  1.00  0.00    -0.322 C  
BRANCH  16  17
HETATM   17  C   UNL     1     -10.007  10.570  68.157  1.00  0.00    -0.172 C  
BRANCH  17  18
HETATM   18  C   UNL     1     -10.696  11.931  67.981  1.00  0.00    -0.242 C  
BRANCH  18  19
HETATM   19  C   UNL     1     -11.476  12.449  69.197  1.00  0.00    -0.358 C  
BRANCH  19  20
HETATM   20  C   UNL     1     -11.830  13.911  69.136  1.00  0.00    -0.401 C  
HETATM   21  C   UNL     1     -12.246  14.671  70.165  1.00  0.00    -0.391 C  
HETATM   22  C   UNL     1     -12.298  14.261  71.616  1.00  0.00    -0.392 C  
HETATM   23  C   UNL     1     -13.665  13.696  71.996  1.00  0.00    -0.583 C  
HETATM   24  C   UNL     1     -11.939  15.448  72.506  1.00  0.00    -0.549 C  
ENDBRANCH  19  20
ENDBRANCH  18  19
ENDBRANCH  17  18
ENDBRANCH  16  17
ENDBRANCH  13  16
ENDBRANCH  11  12
ENDBRANCH   9  11
ENDBRANCH   2   3
TORSDOF 8
ENDMDL
MODEL      307
REMARK 921   NORMALIZED FREE ENERGY PREDICTED BY IDOCK:   -3.49 KCAL/MOL
REMARK 922        TOTAL FREE ENERGY PREDICTED BY IDOCK:   -6.34 KCAL/MOL
REMARK 923 INTER-LIGAND FREE ENERGY PREDICTED BY IDOCK:   -5.08 KCAL/MOL
REMARK 924 INTRA-LIGAND FREE ENERGY PREDICTED BY IDOCK:   -1.26 KCAL/MOL
REMARK 927      BINDING AFFINITY PREDICTED BY RF-SCORE:    0.00 PKD
ROOT
HETATM    1  C   UNL     1     -13.102  11.245  71.722  1.00  0.00    -0.422 C  
HETATM    2  O   UNL     1     -13.286   9.968  71.109  1.00  0.00    -0.384 OA 
ENDROOT
BRANCH   2   3
HETATM    3  C   UNL     1     -12.451   8.992  71.587  1.00  0.00    -0.351 A  
HETATM    4  C   UNL     1     -12.981   7.705  71.679  1.00  0.00    -0.350 A  
HETATM    5  O   UNL     1     -14.275   7.463  71.307  1.00  0.00    -0.568 OA 
HETATM    6  C   UNL     1     -12.231   6.646  72.183  1.00  0.00    -0.269 A  
HETATM    7  C   UNL     1     -10.923   6.881  72.608  1.00  0.00    -0.303 A  
HETATM    8  H   UNL     1     -14.636   6.587  71.369  1.00  0.00     0.000 HD 
HETATM    9  C   UNL     1     -10.359   8.159  72.504  1.00  0.00    -0.401 A  
HETATM   10  C   UNL     1     -11.126   9.207  71.968  1.00  0.00    -0.285 A  
BRANCH   9  11
HETATM   11  C   UNL     1      -8.981   8.457  73.033  1.00  0.00    -0.172 C  
BRANCH  11  12
HETATM   12  N   UNL     1      -8.043   8.698  71.977  1.00  0.00    -0.109 N  
HETATM   13  C   UNL     1      -6.688   8.720  72.206  1.00  0.00    -0.003 C  
HETATM   14  H   UNL     1      -8.390   8.857  71.031  1.00  0.00     0.000 HD 
HETATM   15  O   UNL     1      -6.173   8.527  73.292  1.00  0.00    -0.105 OA 
BRANCH  13  16
HETATM   16  C   UNL     1      -5.909   9.096  70.974  1.00  0.00    -0.051 C  
BRANCH  16  17
HETATM   17  C   UNL     1      -6.734   9.860  69.948  1.00  0.00    -0.088 C  
BRANCH  17  18
HETATM   18  C   UNL     1      -6.998   9.064  68.662  1.00  0.00    -0.063 C  
BRANCH  18  19
HETATM   19  C   UNL     1      -8.314   9.380  67.938  1.00  0.00    -0.115 C  
BRANCH  19  20
HETATM   20  C   UNL     1      -9.495   9.587  68.849  1.00  0.00    -0.155 C  
HETATM   21  C   UNL     1     -10.265  10.688  68.914  1.00  0.00    -0.216 C  
HETATM   22  C   UNL     1     -10.203  11.877  67.989  1.00  0.00    -0.199 C  
HETATM   23  C   UNL     1      -9.284  12.969  68.531  1.00  0.00    -0.062 C  
HETATM   24  C   UNL     1     -11.609  12.425  67.750  1.00  0.00    -0.413 C  
ENDBRANCH  19  20
ENDBRANCH  18  19
ENDBRANCH  17  18
ENDBRANCH  16  17
ENDBRANCH  13  16
ENDBRANCH  11  12
ENDBRANCH   9  11
ENDBRANCH   2   3
TORSDOF 8
ENDMDL
MODEL      308
REMARK 921   NORMALIZED FREE ENERGY PREDICTED BY IDOCK:   -3.49 KCAL/MOL
REMARK 922        TOTAL FREE ENERGY PREDICTED BY IDOCK:   -6.34 KCAL/MOL
REMARK 923 INTER-LIGAND FREE ENERGY PREDICTED BY IDOCK:   -5.60 KCAL/MOL
REMARK 924 INTRA-LIGAND FREE ENERGY PREDICTED BY IDOCK:   -0.74 KCAL/MOL
REMARK 927      BINDING AFFINITY PREDICTED BY RF-SCORE:    0.00 PKD
ROOT
HETATM    1  C   UNL     1      -6.034   6.630  70.503  1.00  0.00    -0.024 C  
HETATM    2  O   UNL     1      -6.851   7.115  71.570  1.00  0.00    -0.055 OA 
ENDROOT
BRANCH   2   3
HETATM    3  C   UNL     1      -8.086   6.526  71.643  1.00  0.00    -0.108 A  
HETATM    4  C   UNL     1      -8.354   5.775  72.787  1.00  0.00    -0.119 A  
HETATM    5  O   UNL     1      -7.410   5.651  73.769  1.00  0.00    -0.086 OA 
HETATM    6  C   UNL     1      -9.564   5.106  72.949  1.00  0.00    -0.162 A  
HETATM    7  C   UNL     1     -10.525   5.186  71.940  1.00  0.00    -0.272 A  
HETATM    8  H   UNL     1      -7.593   5.140  74.548  1.00  0.00     0.000 HD 
HETATM    9  C   UNL     1     -10.289   5.951  70.791  1.00  0.00    -0.292 A  
HETATM   10  C   UNL     1      -9.071   6.640  70.662  1.00  0.00    -0.155 A  
BRANCH   9  11
HETATM   11  C   UNL     1     -11.273   5.985  69.651  1.00  0.00    -0.357 C  
BRANCH  11  12
HETATM   12  N   UNL     1     -11.140   7.176  68.865  1.00  0.00    -0.458 N  
HETATM   13  C   UNL     1     -10.833   7.126  67.526  1.00  0.00    -0.241 C  
HETATM   14  H   UNL     1     -11.277   8.083  69.310  1.00  0.00     0.000 HD 
HETATM   15  O   UNL     1     -10.665   6.096  66.899  1.00  0.00    -0.287 OA 
BRANCH  13  16
HETATM   16  C   UNL     1     -10.641   8.497  66.936  1.00  0.00    -0.279 C  
BRANCH  16  17
HETATM   17  C   UNL     1     -10.584   9.603  67.981  1.00  0.00    -0.292 C  
BRANCH  17  18
HETATM   18  C   UNL     1     -11.242  10.912  67.522  1.00  0.00    -0.364 C  
BRANCH  18  19
HETATM   19  C   UNL     1     -10.727  12.192  68.194  1.00  0.00    -0.238 C  
BRANCH  19  20
HETATM   20  C   UNL     1     -11.724  13.319  68.239  1.00  0.00    -0.388 C  
HETATM   21  C   UNL     1     -11.977  14.196  67.251  1.00  0.00    -0.449 C  
HETATM   22  C   UNL     1     -11.430  14.141  65.846  1.00  0.00    -0.338 C  
HETATM   23  C   UNL     1     -10.147  14.958  65.707  1.00  0.00    -0.367 C  
HETATM   24  C   UNL     1     -12.488  14.625  64.857  1.00  0.00    -0.266 C  
ENDBRANCH  19  20
ENDBRANCH  18  19
ENDBRANCH  17  18
ENDBRANCH  16  17
ENDBRANCH  13  16
ENDBRANCH  11  12
ENDBRANCH   9  11
ENDBRANCH   2   3
TORSDOF 8
ENDMDL
MODEL      309
REMARK 921   NORMALIZED FREE ENERGY PREDICTED BY IDOCK:   -3.48 KCAL/MOL
REMARK 922        TOTAL FREE ENERGY PREDICTED BY IDOCK:   -6.31 KCAL/MOL
REMARK 923 INTER-LIGAND FREE ENERGY PREDICTED BY IDOCK:   -4.28 KCAL/MOL
REMARK 924 INTRA-LIGAND FREE ENERGY PREDICTED BY IDOCK:   -2.03 KCAL/MOL
REMARK 927      BINDING AFFINITY PREDICTED BY RF-SCORE:    0.00 PKD
ROOT
HETATM    1  C   UNL     1      -8.472   5.453  68.060  1.00  0.00    -0.097 C  
HETATM    2  O   UNL     1      -9.755   6.002  67.755  1.00  0.00    -0.111 OA 
ENDROOT
BRANCH   2   3
HETATM    3  C   UNL     1     -10.254   6.830  68.726  1.00  0.00    -0.175 A  
HETATM    4  C   UNL     1     -10.259   8.195  68.442  1.00  0.00    -0.209 A  
HETATM    5  O   UNL     1      -9.779   8.653  67.245  1.00  0.00    -0.162 OA 
HETATM    6  C   UNL     1     -10.713   9.129  69.370  1.00  0.00    -0.210 A  
HETATM    7  C   UNL     1     -11.167   8.684  70.613  1.00  0.00    -0.284 A  
HETATM    8  H   UNL     1      -9.783   9.583  67.052  1.00  0.00     0.000 HD 
HETATM    9  C   UNL     1     -11.194   7.317  70.915  1.00  0.00    -0.298 A  
HETATM   10  C   UNL     1     -10.756   6.392  69.952  1.00  0.00    -0.332 A  
BRANCH   9  11
HETATM   11  C   UNL     1     -11.599   6.819  72.276  1.00  0.00    -0.273 C  
BRANCH  11  12
HETATM   12  N   UNL     1     -11.494   5.393  72.378  1.00  0.00    -0.200 N  
HETATM   13  C   UNL     1     -11.006   4.784  73.510  1.00  0.00    -0.324 C  
HETATM   14  H   UNL     1     -11.788   4.816  71.590  1.00  0.00     0.000 HD 
HETATM   15  O   UNL     1     -10.644   5.380  74.508  1.00  0.00    -0.287 OA 
BRANCH  13  16
HETATM   16  C   UNL     1     -10.889   3.293  73.347  1.00  0.00    -0.307 C  
BRANCH  16  17
HETATM   17  C   UNL     1      -9.991   2.880  72.189  1.00  0.00    -0.235 C  
BRANCH  17  18
HETATM   18  C   UNL     1      -8.495   2.900  72.538  1.00  0.00    -0.077 C  
BRANCH  18  19
HETATM   19  C   UNL     1      -7.669   4.012  71.877  1.00  0.00    -0.067 C  
BRANCH  19  20
HETATM   20  C   UNL     1      -6.830   4.819  72.832  1.00  0.00    -0.070 C  
HETATM   21  C   UNL     1      -6.938   6.140  73.064  1.00  0.00    -0.079 C  
HETATM   22  C   UNL     1      -8.014   7.055  72.535  1.00  0.00    -0.101 C  
HETATM   23  C   UNL     1      -7.597   7.720  71.225  1.00  0.00    -0.080 C  
HETATM   24  C   UNL     1      -8.366   8.106  73.585  1.00  0.00    -0.305 C  
ENDBRANCH  19  20
ENDBRANCH  18  19
ENDBRANCH  17  18
ENDBRANCH  16  17
ENDBRANCH  13  16
ENDBRANCH  11  12
ENDBRANCH   9  11
ENDBRANCH   2   3
TORSDOF 8
ENDMDL
MODEL      310
REMARK 921   NORMALIZED FREE ENERGY PREDICTED BY IDOCK:   -3.46 KCAL/MOL
REMARK 922        TOTAL FREE ENERGY PREDICTED BY IDOCK:   -6.30 KCAL/MOL
REMARK 923 INTER-LIGAND FREE ENERGY PREDICTED BY IDOCK:   -5.57 KCAL/MOL
REMARK 924 INTRA-LIGAND FREE ENERGY PREDICTED BY IDOCK:   -0.72 KCAL/MOL
REMARK 927      BINDING AFFINITY PREDICTED BY RF-SCORE:    0.00 PKD
ROOT
HETATM    1  C   UNL     1      -6.402   7.097  71.461  1.00  0.00    -0.037 C  
HETATM    2  O   UNL     1      -7.248   8.055  72.100  1.00  0.00    -0.072 OA 
ENDROOT
BRANCH   2   3
HETATM    3  C   UNL     1      -8.587   7.824  71.926  1.00  0.00    -0.114 A  
HETATM    4  C   UNL     1      -9.375   7.819  73.076  1.00  0.00    -0.239 A  
HETATM    5  O   UNL     1      -8.809   8.034  74.302  1.00  0.00    -0.413 OA 
HETATM    6  C   UNL     1     -10.743   7.561  73.018  1.00  0.00    -0.438 A  
HETATM    7  C   UNL     1     -11.332   7.297  71.781  1.00  0.00    -0.285 A  
HETATM    8  H   UNL     1      -9.346   8.031  75.086  1.00  0.00     0.000 HD 
HETATM    9  C   UNL     1     -10.567   7.319  70.608  1.00  0.00    -0.240 A  
HETATM   10  C   UNL     1      -9.194   7.608  70.688  1.00  0.00    -0.162 A  
BRANCH   9  11
HETATM   11  C   UNL     1     -11.161   6.955  69.273  1.00  0.00    -0.184 C  
BRANCH  11  12
HETATM   12  N   UNL     1     -10.426   7.530  68.186  1.00  0.00    -0.257 N  
HETATM   13  C   UNL     1     -10.018   6.775  67.111  1.00  0.00    -0.167 C  
HETATM   14  H   UNL     1     -10.199   8.524  68.209  1.00  0.00     0.000 HD 
HETATM   15  O   UNL     1     -10.250   5.587  66.980  1.00  0.00    -0.176 OA 
BRANCH  13  16
HETATM   16  C   UNL     1      -9.173   7.565  66.149  1.00  0.00    -0.156 C  
BRANCH  16  17
HETATM   17  C   UNL     1      -8.995   9.022  66.556  1.00  0.00    -0.177 C  
BRANCH  17  18
HETATM   18  C   UNL     1      -9.483  10.017  65.493  1.00  0.00    -0.296 C  
BRANCH  18  19
HETATM   19  C   UNL     1     -10.488  11.072  65.975  1.00  0.00    -0.304 C  
BRANCH  19  20
HETATM   20  C   UNL     1     -11.064  11.932  64.882  1.00  0.00    -0.363 C  
HETATM   21  C   UNL     1     -11.260  13.262  64.937  1.00  0.00    -0.338 C  
HETATM   22  C   UNL     1     -10.806  14.187  66.039  1.00  0.00    -0.297 C  
HETATM   23  C   UNL     1     -11.890  14.382  67.097  1.00  0.00    -0.437 C  
HETATM   24  C   UNL     1     -10.381  15.530  65.449  1.00  0.00    -0.422 C  
ENDBRANCH  19  20
ENDBRANCH  18  19
ENDBRANCH  17  18
ENDBRANCH  16  17
ENDBRANCH  13  16
ENDBRANCH  11  12
ENDBRANCH   9  11
ENDBRANCH   2   3
TORSDOF 8
ENDMDL
MODEL      311
REMARK 921   NORMALIZED FREE ENERGY PREDICTED BY IDOCK:   -3.46 KCAL/MOL
REMARK 922        TOTAL FREE ENERGY PREDICTED BY IDOCK:   -6.29 KCAL/MOL
REMARK 923 INTER-LIGAND FREE ENERGY PREDICTED BY IDOCK:   -4.22 KCAL/MOL
REMARK 924 INTRA-LIGAND FREE ENERGY PREDICTED BY IDOCK:   -2.07 KCAL/MOL
REMARK 927      BINDING AFFINITY PREDICTED BY RF-SCORE:    0.00 PKD
ROOT
HETATM    1  C   UNL     1      -8.899   5.461  67.647  1.00  0.00    -0.105 C  
HETATM    2  O   UNL     1      -9.985   6.368  67.840  1.00  0.00    -0.123 OA 
ENDROOT
BRANCH   2   3
HETATM    3  C   UNL     1      -9.762   7.312  68.808  1.00  0.00    -0.151 A  
HETATM    4  C   UNL     1     -10.628   7.303  69.901  1.00  0.00    -0.231 A  
HETATM    5  O   UNL     1     -11.641   6.387  69.972  1.00  0.00    -0.425 OA 
HETATM    6  C   UNL     1     -10.512   8.239  70.926  1.00  0.00    -0.230 A  
HETATM    7  C   UNL     1      -9.511   9.208  70.851  1.00  0.00    -0.343 A  
HETATM    8  H   UNL     1     -12.231   6.381  70.717  1.00  0.00     0.000 HD 
HETATM    9  C   UNL     1      -8.614   9.224  69.775  1.00  0.00    -0.164 A  
HETATM   10  C   UNL     1      -8.733   8.253  68.767  1.00  0.00    -0.137 A  
BRANCH   9  11
HETATM   11  C   UNL     1      -7.580  10.308  69.629  1.00  0.00    -0.164 C  
BRANCH  11  12
HETATM   12  N   UNL     1      -6.887  10.221  68.378  1.00  0.00    -0.061 N  
HETATM   13  C   UNL     1      -6.679  11.328  67.589  1.00  0.00    -0.073 C  
HETATM   14  H   UNL     1      -6.538   9.315  68.065  1.00  0.00     0.000 HD 
HETATM   15  O   UNL     1      -7.040  12.454  67.878  1.00  0.00    -0.088 OA 
BRANCH  13  16
HETATM   16  C   UNL     1      -6.027  10.977  66.279  1.00  0.00    -0.143 C  
BRANCH  16  17
HETATM   17  C   UNL     1      -6.612   9.732  65.626  1.00  0.00    -0.087 C  
BRANCH  17  18
HETATM   18  C   UNL     1      -7.778  10.033  64.673  1.00  0.00    -0.146 C  
BRANCH  18  19
HETATM   19  C   UNL     1      -9.181   9.973  65.293  1.00  0.00    -0.268 C  
BRANCH  19  20
HETATM   20  C   UNL     1      -9.995  11.228  65.120  1.00  0.00    -0.312 C  
HETATM   21  C   UNL     1     -10.629  11.905  66.094  1.00  0.00    -0.295 C  
HETATM   22  C   UNL     1     -10.532  11.638  67.576  1.00  0.00    -0.228 C  
HETATM   23  C   UNL     1     -11.636  10.697  68.054  1.00  0.00    -0.182 C  
HETATM   24  C   UNL     1     -10.575  12.956  68.346  1.00  0.00    -0.267 C  
ENDBRANCH  19  20
ENDBRANCH  18  19
ENDBRANCH  17  18
ENDBRANCH  16  17
ENDBRANCH  13  16
ENDBRANCH  11  12
ENDBRANCH   9  11
ENDBRANCH   2   3
TORSDOF 8
ENDMDL
MODEL      312
REMARK 921   NORMALIZED FREE ENERGY PREDICTED BY IDOCK:   -3.45 KCAL/MOL
REMARK 922        TOTAL FREE ENERGY PREDICTED BY IDOCK:   -6.28 KCAL/MOL
REMARK 923 INTER-LIGAND FREE ENERGY PREDICTED BY IDOCK:   -5.35 KCAL/MOL
REMARK 924 INTRA-LIGAND FREE ENERGY PREDICTED BY IDOCK:   -0.93 KCAL/MOL
REMARK 927      BINDING AFFINITY PREDICTED BY RF-SCORE:    0.00 PKD
ROOT
HETATM    1  C   UNL     1     -10.658   7.788  67.071  1.00  0.00    -0.326 C  
HETATM    2  O   UNL     1      -9.918   6.718  66.479  1.00  0.00    -0.158 OA 
ENDROOT
BRANCH   2   3
HETATM    3  C   UNL     1      -9.454   5.794  67.378  1.00  0.00    -0.112 A  
HETATM    4  C   UNL     1      -9.777   4.461  67.127  1.00  0.00    -0.197 A  
HETATM    5  O   UNL     1     -10.523   4.125  66.032  1.00  0.00    -0.447 OA 
HETATM    6  C   UNL     1      -9.385   3.444  67.994  1.00  0.00    -0.241 A  
HETATM    7  C   UNL     1      -8.659   3.771  69.140  1.00  0.00    -0.115 A  
HETATM    8  H   UNL     1     -10.743   3.217  65.861  1.00  0.00     0.000 HD 
HETATM    9  C   UNL     1      -8.303   5.099  69.404  1.00  0.00    -0.090 A  
HETATM   10  C   UNL     1      -8.686   6.105  68.500  1.00  0.00    -0.111 A  
BRANCH   9  11
HETATM   11  C   UNL     1      -7.594   5.488  70.674  1.00  0.00    -0.089 C  
BRANCH  11  12
HETATM   12  N   UNL     1      -8.097   6.716  71.214  1.00  0.00    -0.111 N  
HETATM   13  C   UNL     1      -9.125   6.735  72.127  1.00  0.00    -0.137 C  
HETATM   14  H   UNL     1      -7.682   7.598  70.913  1.00  0.00     0.000 HD 
HETATM   15  O   UNL     1      -9.676   5.741  72.560  1.00  0.00    -0.158 OA 
BRANCH  13  16
HETATM   16  C   UNL     1      -9.554   8.137  72.469  1.00  0.00    -0.347 C  
BRANCH  16  17
HETATM   17  C   UNL     1     -10.999   8.436  72.092  1.00  0.00    -0.411 C  
BRANCH  17  18
HETATM   18  C   UNL     1     -11.183   8.781  70.606  1.00  0.00    -0.294 C  
BRANCH  18  19
HETATM   19  C   UNL     1     -10.970  10.253  70.230  1.00  0.00    -0.375 C  
BRANCH  19  20
HETATM   20  C   UNL     1     -11.792  10.724  69.060  1.00  0.00    -0.325 C  
HETATM   21  C   UNL     1     -12.005  12.003  68.701  1.00  0.00    -0.290 C  
HETATM   22  C   UNL     1     -11.344  13.220  69.300  1.00  0.00    -0.311 C  
HETATM   23  C   UNL     1     -12.175  13.815  70.435  1.00  0.00    -0.433 C  
HETATM   24  C   UNL     1     -11.091  14.263  68.213  1.00  0.00    -0.276 C  
ENDBRANCH  19  20
ENDBRANCH  18  19
ENDBRANCH  17  18
ENDBRANCH  16  17
ENDBRANCH  13  16
ENDBRANCH  11  12
ENDBRANCH   9  11
ENDBRANCH   2   3
TORSDOF 8
ENDMDL
MODEL      313
REMARK 921   NORMALIZED FREE ENERGY PREDICTED BY IDOCK:   -3.45 KCAL/MOL
REMARK 922        TOTAL FREE ENERGY PREDICTED BY IDOCK:   -6.28 KCAL/MOL
REMARK 923 INTER-LIGAND FREE ENERGY PREDICTED BY IDOCK:   -4.91 KCAL/MOL
REMARK 924 INTRA-LIGAND FREE ENERGY PREDICTED BY IDOCK:   -1.37 KCAL/MOL
REMARK 927      BINDING AFFINITY PREDICTED BY RF-SCORE:    0.00 PKD
ROOT
HETATM    1  C   UNL     1     -13.219   9.422  72.065  1.00  0.00    -0.449 C  
HETATM    2  O   UNL     1     -11.810   9.250  71.902  1.00  0.00    -0.365 OA 
ENDROOT
BRANCH   2   3
HETATM    3  C   UNL     1     -11.403   9.168  70.597  1.00  0.00    -0.273 A  
HETATM    4  C   UNL     1     -10.898   7.937  70.175  1.00  0.00    -0.243 A  
HETATM    5  O   UNL     1     -10.824   6.886  71.047  1.00  0.00    -0.231 OA 
HETATM    6  C   UNL     1     -10.425   7.753  68.879  1.00  0.00    -0.208 A  
HETATM    7  C   UNL     1     -10.453   8.825  67.986  1.00  0.00    -0.260 A  
HETATM    8  H   UNL     1     -10.481   6.048  70.760  1.00  0.00     0.000 HD 
HETATM    9  C   UNL     1     -10.976  10.065  68.378  1.00  0.00    -0.266 A  
HETATM   10  C   UNL     1     -11.473  10.220  69.683  1.00  0.00    -0.297 A  
BRANCH   9  11
HETATM   11  C   UNL     1     -10.940  11.259  67.462  1.00  0.00    -0.265 C  
BRANCH  11  12
HETATM   12  N   UNL     1     -10.109  11.031  66.317  1.00  0.00    -0.227 N  
HETATM   13  C   UNL     1     -10.538  11.323  65.044  1.00  0.00    -0.289 C  
HETATM   14  H   UNL     1      -9.175  10.644  66.450  1.00  0.00     0.000 HD 
HETATM   15  O   UNL     1     -11.626  11.801  64.780  1.00  0.00    -0.268 OA 
BRANCH  13  16
HETATM   16  C   UNL     1      -9.541  10.902  63.998  1.00  0.00    -0.321 C  
BRANCH  16  17
HETATM   17  C   UNL     1      -8.389  10.080  64.557  1.00  0.00    -0.168 C  
BRANCH  17  18
HETATM   18  C   UNL     1      -8.455   8.594  64.173  1.00  0.00    -0.091 C  
BRANCH  18  19
HETATM   19  C   UNL     1      -8.162   7.597  65.302  1.00  0.00    -0.136 C  
BRANCH  19  20
HETATM   20  C   UNL     1      -8.478   6.163  64.968  1.00  0.00    -0.071 C  
HETATM   21  C   UNL     1      -8.504   5.133  65.831  1.00  0.00    -0.121 C  
HETATM   22  C   UNL     1      -8.371   5.221  67.332  1.00  0.00    -0.106 C  
HETATM   23  C   UNL     1      -6.923   5.050  67.783  1.00  0.00    -0.061 C  
HETATM   24  C   UNL     1      -9.269   4.179  67.996  1.00  0.00    -0.191 C  
ENDBRANCH  19  20
ENDBRANCH  18  19
ENDBRANCH  17  18
ENDBRANCH  16  17
ENDBRANCH  13  16
ENDBRANCH  11  12
ENDBRANCH   9  11
ENDBRANCH   2   3
TORSDOF 8
ENDMDL
MODEL      314
REMARK 921   NORMALIZED FREE ENERGY PREDICTED BY IDOCK:   -3.45 KCAL/MOL
REMARK 922        TOTAL FREE ENERGY PREDICTED BY IDOCK:   -6.27 KCAL/MOL
REMARK 923 INTER-LIGAND FREE ENERGY PREDICTED BY IDOCK:   -4.99 KCAL/MOL
REMARK 924 INTRA-LIGAND FREE ENERGY PREDICTED BY IDOCK:   -1.28 KCAL/MOL
REMARK 927      BINDING AFFINITY PREDICTED BY RF-SCORE:    0.00 PKD
ROOT
HETATM    1  C   UNL     1      -5.399  14.108  73.593  1.00  0.00    -0.316 C  
HETATM    2  O   UNL     1      -5.149  13.130  72.582  1.00  0.00    -0.333 OA 
ENDROOT
BRANCH   2   3
HETATM    3  C   UNL     1      -5.548  13.507  71.327  1.00  0.00    -0.197 A  
HETATM    4  C   UNL     1      -5.566  12.511  70.351  1.00  0.00    -0.161 A  
HETATM    5  O   UNL     1      -5.195  11.232  70.662  1.00  0.00    -0.091 OA 
HETATM    6  C   UNL     1      -5.923  12.791  69.034  1.00  0.00    -0.084 A  
HETATM    7  C   UNL     1      -6.264  14.099  68.687  1.00  0.00    -0.088 A  
HETATM    8  H   UNL     1      -5.208  10.553  69.998  1.00  0.00     0.000 HD 
HETATM    9  C   UNL     1      -6.276  15.113  69.652  1.00  0.00    -0.135 A  
HETATM   10  C   UNL     1      -5.938  14.801  70.981  1.00  0.00    -0.012 A  
BRANCH   9  11
HETATM   11  C   UNL     1      -6.557  16.546  69.287  1.00  0.00    -0.207 C  
BRANCH  11  12
HETATM   12  N   UNL     1      -7.963  16.812  69.211  1.00  0.00    -0.119 N  
HETATM   13  C   UNL     1      -8.513  17.493  68.150  1.00  0.00    -0.254 C  
HETATM   14  H   UNL     1      -8.572  16.489  69.963  1.00  0.00     0.000 HD 
HETATM   15  O   UNL     1      -7.878  17.907  67.198  1.00  0.00    -0.201 OA 
BRANCH  13  16
HETATM   16  C   UNL     1      -9.984  17.748  68.340  1.00  0.00    -0.362 C  
BRANCH  16  17
HETATM   17  C   UNL     1     -10.627  16.838  69.378  1.00  0.00    -0.318 C  
BRANCH  17  18
HETATM   18  C   UNL     1     -11.685  15.892  68.790  1.00  0.00    -0.355 C  
BRANCH  18  19
HETATM   19  C   UNL     1     -11.208  14.980  67.651  1.00  0.00    -0.331 C  
BRANCH  19  20
HETATM   20  C   UNL     1      -9.995  14.152  67.979  1.00  0.00    -0.226 C  
HETATM   21  C   UNL     1      -9.919  12.809  67.956  1.00  0.00    -0.225 C  
HETATM   22  C   UNL     1     -10.981  11.863  67.452  1.00  0.00    -0.315 C  
HETATM   23  C   UNL     1     -11.904  11.397  68.576  1.00  0.00    -0.364 C  
HETATM   24  C   UNL     1     -10.328  10.668  66.760  1.00  0.00    -0.299 C  
ENDBRANCH  19  20
ENDBRANCH  18  19
ENDBRANCH  17  18
ENDBRANCH  16  17
ENDBRANCH  13  16
ENDBRANCH  11  12
ENDBRANCH   9  11
ENDBRANCH   2   3
TORSDOF 8
ENDMDL
MODEL      315
REMARK 921   NORMALIZED FREE ENERGY PREDICTED BY IDOCK:   -3.43 KCAL/MOL
REMARK 922        TOTAL FREE ENERGY PREDICTED BY IDOCK:   -6.25 KCAL/MOL
REMARK 923 INTER-LIGAND FREE ENERGY PREDICTED BY IDOCK:   -5.40 KCAL/MOL
REMARK 924 INTRA-LIGAND FREE ENERGY PREDICTED BY IDOCK:   -0.85 KCAL/MOL
REMARK 927      BINDING AFFINITY PREDICTED BY RF-SCORE:    0.00 PKD
ROOT
HETATM    1  C   UNL     1      -6.113  10.967  67.913  1.00  0.00    -0.050 C  
HETATM    2  O   UNL     1      -6.236  11.193  66.508  1.00  0.00    -0.119 OA 
ENDROOT
BRANCH   2   3
HETATM    3  C   UNL     1      -7.485  10.936  66.006  1.00  0.00    -0.086 A  
HETATM    4  C   UNL     1      -7.554  10.070  64.915  1.00  0.00    -0.139 A  
HETATM    5  O   UNL     1      -6.414   9.522  64.394  1.00  0.00    -0.086 OA 
HETATM    6  C   UNL     1      -8.769   9.766  64.306  1.00  0.00    -0.227 A  
HETATM    7  C   UNL     1      -9.939  10.348  64.797  1.00  0.00    -0.409 A  
HETATM    8  H   UNL     1      -6.462   8.932  63.652  1.00  0.00     0.000 HD 
HETATM    9  C   UNL     1      -9.899  11.203  65.905  1.00  0.00    -0.275 A  
HETATM   10  C   UNL     1      -8.665  11.474  66.520  1.00  0.00    -0.183 A  
BRANCH   9  11
HETATM   11  C   UNL     1     -11.133  11.909  66.400  1.00  0.00    -0.309 C  
BRANCH  11  12
HETATM   12  N   UNL     1     -11.003  13.334  66.324  1.00  0.00    -0.283 N  
HETATM   13  C   UNL     1     -11.060  14.125  67.447  1.00  0.00    -0.306 C  
HETATM   14  H   UNL     1     -10.863  13.772  65.414  1.00  0.00     0.000 HD 
HETATM   15  O   UNL     1     -11.208  13.700  68.578  1.00  0.00    -0.251 OA 
BRANCH  13  16
HETATM   16  C   UNL     1     -11.007  15.591  67.112  1.00  0.00    -0.295 C  
BRANCH  16  17
HETATM   17  C   UNL     1     -10.130  15.905  65.908  1.00  0.00    -0.376 C  
BRANCH  17  18
HETATM   18  C   UNL     1      -8.802  16.581  66.278  1.00  0.00    -0.364 C  
BRANCH  18  19
HETATM   19  C   UNL     1      -8.840  17.504  67.503  1.00  0.00    -0.229 C  
BRANCH  19  20
HETATM   20  C   UNL     1      -7.825  17.176  68.566  1.00  0.00    -0.257 C  
HETATM   21  C   UNL     1      -6.853  17.989  69.015  1.00  0.00    -0.250 C  
HETATM   22  C   UNL     1      -6.671  19.444  68.662  1.00  0.00    -0.329 C  
HETATM   23  C   UNL     1      -5.728  19.624  67.474  1.00  0.00    -0.188 C  
HETATM   24  C   UNL     1      -6.161  20.216  69.877  1.00  0.00    -0.393 C  
ENDBRANCH  19  20
ENDBRANCH  18  19
ENDBRANCH  17  18
ENDBRANCH  16  17
ENDBRANCH  13  16
ENDBRANCH  11  12
ENDBRANCH   9  11
ENDBRANCH   2   3
TORSDOF 8
ENDMDL
MODEL      316
REMARK 921   NORMALIZED FREE ENERGY PREDICTED BY IDOCK:   -3.43 KCAL/MOL
REMARK 922        TOTAL FREE ENERGY PREDICTED BY IDOCK:   -6.25 KCAL/MOL
REMARK 923 INTER-LIGAND FREE ENERGY PREDICTED BY IDOCK:   -5.42 KCAL/MOL
REMARK 924 INTRA-LIGAND FREE ENERGY PREDICTED BY IDOCK:   -0.83 KCAL/MOL
REMARK 927      BINDING AFFINITY PREDICTED BY RF-SCORE:    0.00 PKD
ROOT
HETATM    1  C   UNL     1     -10.885   6.646  67.100  1.00  0.00    -0.401 C  
HETATM    2  O   UNL     1      -9.522   6.901  67.444  1.00  0.00    -0.128 OA 
ENDROOT
BRANCH   2   3
HETATM    3  C   UNL     1      -9.305   8.137  67.995  1.00  0.00    -0.135 A  
HETATM    4  C   UNL     1      -8.963   8.167  69.347  1.00  0.00    -0.147 A  
HETATM    5  O   UNL     1      -8.860   7.004  70.059  1.00  0.00    -0.141 OA 
HETATM    6  C   UNL     1      -8.753   9.370  70.016  1.00  0.00    -0.227 A  
HETATM    7  C   UNL     1      -8.895  10.569  69.316  1.00  0.00    -0.135 A  
HETATM    8  H   UNL     1      -8.626   7.024  70.980  1.00  0.00     0.000 HD 
HETATM    9  C   UNL     1      -9.216  10.566  67.953  1.00  0.00    -0.143 A  
HETATM   10  C   UNL     1      -9.396   9.338  67.293  1.00  0.00    -0.161 A  
BRANCH   9  11
HETATM   11  C   UNL     1      -9.457  11.845  67.197  1.00  0.00    -0.178 C  
BRANCH  11  12
HETATM   12  N   UNL     1      -9.699  12.950  68.078  1.00  0.00    -0.218 N  
HETATM   13  C   UNL     1     -10.966  13.442  68.288  1.00  0.00    -0.259 C  
HETATM   14  H   UNL     1      -8.912  13.382  68.561  1.00  0.00     0.000 HD 
HETATM   15  O   UNL     1     -11.971  12.988  67.773  1.00  0.00    -0.348 OA 
BRANCH  13  16
HETATM   16  C   UNL     1     -10.962  14.665  69.164  1.00  0.00    -0.277 C  
BRANCH  16  17
HETATM   17  C   UNL     1     -10.101  15.796  68.619  1.00  0.00    -0.211 C  
BRANCH  17  18
HETATM   18  C   UNL     1     -10.838  16.698  67.618  1.00  0.00    -0.258 C  
BRANCH  18  19
HETATM   19  C   UNL     1     -10.552  18.201  67.735  1.00  0.00    -0.407 C  
BRANCH  19  20
HETATM   20  C   UNL     1      -9.397  18.550  68.635  1.00  0.00    -0.352 C  
HETATM   21  C   UNL     1      -8.194  19.007  68.244  1.00  0.00    -0.364 C  
HETATM   22  C   UNL     1      -7.804  19.411  66.844  1.00  0.00    -0.278 C  
HETATM   23  C   UNL     1      -7.173  18.252  66.076  1.00  0.00    -0.298 C  
HETATM   24  C   UNL     1      -6.856  20.607  66.891  1.00  0.00    -0.353 C  
ENDBRANCH  19  20
ENDBRANCH  18  19
ENDBRANCH  17  18
ENDBRANCH  16  17
ENDBRANCH  13  16
ENDBRANCH  11  12
ENDBRANCH   9  11
ENDBRANCH   2   3
TORSDOF 8
ENDMDL
MODEL      317
REMARK 921   NORMALIZED FREE ENERGY PREDICTED BY IDOCK:   -3.39 KCAL/MOL
REMARK 922        TOTAL FREE ENERGY PREDICTED BY IDOCK:   -6.18 KCAL/MOL
REMARK 923 INTER-LIGAND FREE ENERGY PREDICTED BY IDOCK:   -5.35 KCAL/MOL
REMARK 924 INTRA-LIGAND FREE ENERGY PREDICTED BY IDOCK:   -0.83 KCAL/MOL
REMARK 927      BINDING AFFINITY PREDICTED BY RF-SCORE:    0.00 PKD
ROOT
HETATM    1  C   UNL     1     -10.482  13.108  65.484  1.00  0.00    -0.288 C  
HETATM    2  O   UNL     1     -11.128  14.306  65.918  1.00  0.00    -0.302 OA 
ENDROOT
BRANCH   2   3
HETATM    3  C   UNL     1     -11.133  14.479  67.277  1.00  0.00    -0.312 A  
HETATM    4  C   UNL     1     -10.390  15.551  67.773  1.00  0.00    -0.263 A  
HETATM    5  O   UNL     1      -9.701  16.367  66.920  1.00  0.00    -0.238 OA 
HETATM    6  C   UNL     1     -10.298  15.798  69.141  1.00  0.00    -0.240 A  
HETATM    7  C   UNL     1     -10.959  14.951  70.030  1.00  0.00    -0.234 A  
HETATM    8  H   UNL     1      -9.195  17.097  67.258  1.00  0.00     0.000 HD 
HETATM    9  C   UNL     1     -11.730  13.882  69.557  1.00  0.00    -0.369 A  
HETATM   10  C   UNL     1     -11.831  13.668  68.172  1.00  0.00    -0.407 A  
BRANCH   9  11
HETATM   11  C   UNL     1     -12.384  12.905  70.498  1.00  0.00    -0.283 C  
BRANCH  11  12
HETATM   12  N   UNL     1     -11.692  11.651  70.533  1.00  0.00    -0.491 N  
HETATM   13  C   UNL     1     -12.340  10.477  70.837  1.00  0.00    -0.390 C  
HETATM   14  H   UNL     1     -10.693  11.628  70.327  1.00  0.00     0.000 HD 
HETATM   15  O   UNL     1     -13.529  10.394  71.083  1.00  0.00    -0.287 OA 
BRANCH  13  16
HETATM   16  C   UNL     1     -11.393   9.310  70.919  1.00  0.00    -0.373 C  
BRANCH  16  17
HETATM   17  C   UNL     1      -9.928   9.712  70.818  1.00  0.00    -0.260 C  
BRANCH  17  18
HETATM   18  C   UNL     1      -9.351   9.565  69.402  1.00  0.00    -0.185 C  
BRANCH  18  19
HETATM   19  C   UNL     1      -7.821   9.486  69.308  1.00  0.00    -0.088 C  
BRANCH  19  20
HETATM   20  C   UNL     1      -7.122   9.305  70.629  1.00  0.00    -0.111 C  
HETATM   21  C   UNL     1      -6.685   8.142  71.145  1.00  0.00    -0.044 C  
HETATM   22  C   UNL     1      -6.665   6.806  70.444  1.00  0.00    -0.057 C  
HETATM   23  C   UNL     1      -7.931   6.000  70.727  1.00  0.00    -0.114 C  
HETATM   24  C   UNL     1      -5.422   6.020  70.855  1.00  0.00    -0.017 C  
ENDBRANCH  19  20
ENDBRANCH  18  19
ENDBRANCH  17  18
ENDBRANCH  16  17
ENDBRANCH  13  16
ENDBRANCH  11  12
ENDBRANCH   9  11
ENDBRANCH   2   3
TORSDOF 8
ENDMDL
MODEL      318
REMARK 921   NORMALIZED FREE ENERGY PREDICTED BY IDOCK:   -3.38 KCAL/MOL
REMARK 922        TOTAL FREE ENERGY PREDICTED BY IDOCK:   -6.18 KCAL/MOL
REMARK 923 INTER-LIGAND FREE ENERGY PREDICTED BY IDOCK:   -5.90 KCAL/MOL
REMARK 924 INTRA-LIGAND FREE ENERGY PREDICTED BY IDOCK:   -0.28 KCAL/MOL
REMARK 927      BINDING AFFINITY PREDICTED BY RF-SCORE:    0.00 PKD
ROOT
HETATM    1  C   UNL     1      -9.995  11.492  63.366  1.00  0.00    -0.417 C  
HETATM    2  O   UNL     1      -9.395  10.515  64.220  1.00  0.00    -0.220 OA 
ENDROOT
BRANCH   2   3
HETATM    3  C   UNL     1      -9.374  10.866  65.544  1.00  0.00    -0.206 A  
HETATM    4  C   UNL     1      -8.119  11.072  66.116  1.00  0.00    -0.141 A  
HETATM    5  O   UNL     1      -6.985  10.920  65.367  1.00  0.00    -0.359 OA 
HETATM    6  C   UNL     1      -7.980  11.398  67.463  1.00  0.00    -0.127 A  
HETATM    7  C   UNL     1      -9.124  11.516  68.254  1.00  0.00    -0.185 A  
HETATM    8  H   UNL     1      -6.130  11.061  65.757  1.00  0.00     0.000 HD 
HETATM    9  C   UNL     1     -10.397  11.336  67.699  1.00  0.00    -0.212 A  
HETATM   10  C   UNL     1     -10.513  11.034  66.331  1.00  0.00    -0.312 A  
BRANCH   9  11
HETATM   11  C   UNL     1     -11.639  11.374  68.548  1.00  0.00    -0.318 C  
BRANCH  11  12
HETATM   12  N   UNL     1     -11.903  10.110  69.168  1.00  0.00    -0.495 N  
HETATM   13  C   UNL     1     -12.123  10.000  70.521  1.00  0.00    -0.251 C  
HETATM   14  H   UNL     1     -11.929   9.269  68.591  1.00  0.00     0.000 HD 
HETATM   15  O   UNL     1     -12.128  10.941  71.293  1.00  0.00    -0.311 OA 
BRANCH  13  16
HETATM   16  C   UNL     1     -12.271   8.568  70.959  1.00  0.00    -0.190 C  
BRANCH  16  17
HETATM   17  C   UNL     1     -12.056   8.367  72.453  1.00  0.00    -0.443 C  
BRANCH  17  18
HETATM   18  C   UNL     1     -10.596   8.069  72.826  1.00  0.00    -0.420 C  
BRANCH  18  19
HETATM   19  C   UNL     1      -9.667   7.710  71.658  1.00  0.00    -0.191 C  
BRANCH  19  20
HETATM   20  C   UNL     1      -9.947   6.373  71.026  1.00  0.00    -0.205 C  
HETATM   21  C   UNL     1     -10.137   5.210  71.675  1.00  0.00    -0.262 C  
HETATM   22  C   UNL     1     -10.262   5.031  73.168  1.00  0.00    -0.214 C  
HETATM   23  C   UNL     1      -8.914   4.716  73.814  1.00  0.00    -0.103 C  
HETATM   24  C   UNL     1     -11.277   3.934  73.477  1.00  0.00    -0.312 C  
ENDBRANCH  19  20
ENDBRANCH  18  19
ENDBRANCH  17  18
ENDBRANCH  16  17
ENDBRANCH  13  16
ENDBRANCH  11  12
ENDBRANCH   9  11
ENDBRANCH   2   3
TORSDOF 8
ENDMDL
MODEL      319
REMARK 921   NORMALIZED FREE ENERGY PREDICTED BY IDOCK:   -3.37 KCAL/MOL
REMARK 922        TOTAL FREE ENERGY PREDICTED BY IDOCK:   -6.16 KCAL/MOL
REMARK 923 INTER-LIGAND FREE ENERGY PREDICTED BY IDOCK:   -5.11 KCAL/MOL
REMARK 924 INTRA-LIGAND FREE ENERGY PREDICTED BY IDOCK:   -1.05 KCAL/MOL
REMARK 927      BINDING AFFINITY PREDICTED BY RF-SCORE:    0.00 PKD
ROOT
HETATM    1  C   UNL     1     -10.948   7.163  66.987  1.00  0.00    -0.234 C  
HETATM    2  O   UNL     1     -10.717   6.031  67.829  1.00  0.00    -0.247 OA 
ENDROOT
BRANCH   2   3
HETATM    3  C   UNL     1     -10.618   6.335  69.161  1.00  0.00    -0.268 A  
HETATM    4  C   UNL     1     -10.303   5.282  70.020  1.00  0.00    -0.295 A  
HETATM    5  O   UNL     1     -10.111   4.022  69.527  1.00  0.00    -0.045 OA 
HETATM    6  C   UNL     1     -10.210   5.472  71.397  1.00  0.00    -0.275 A  
HETATM    7  C   UNL     1     -10.444   6.743  71.924  1.00  0.00    -0.221 A  
HETATM    8  H   UNL     1      -9.896   3.305  70.112  1.00  0.00     0.000 HD 
HETATM    9  C   UNL     1     -10.741   7.821  71.081  1.00  0.00    -0.245 A  
HETATM   10  C   UNL     1     -10.801   7.612  69.693  1.00  0.00    -0.195 A  
BRANCH   9  11
HETATM   11  C   UNL     1     -11.079   9.181  71.631  1.00  0.00    -0.375 C  
BRANCH  11  12
HETATM   12  N   UNL     1     -10.692  10.232  70.737  1.00  0.00    -0.365 N  
HETATM   13  C   UNL     1     -11.623  11.007  70.087  1.00  0.00    -0.334 C  
HETATM   14  H   UNL     1      -9.700  10.409  70.579  1.00  0.00     0.000 HD 
HETATM   15  O   UNL     1     -12.827  10.887  70.218  1.00  0.00    -0.267 OA 
BRANCH  13  16
HETATM   16  C   UNL     1     -10.986  11.971  69.122  1.00  0.00    -0.231 C  
BRANCH  16  17
HETATM   17  C   UNL     1     -11.754  12.115  67.816  1.00  0.00    -0.390 C  
BRANCH  17  18
HETATM   18  C   UNL     1     -11.332  11.098  66.744  1.00  0.00    -0.119 C  
BRANCH  18  19
HETATM   19  C   UNL     1      -9.827  11.010  66.461  1.00  0.00    -0.241 C  
BRANCH  19  20
HETATM   20  C   UNL     1      -9.476  10.434  65.115  1.00  0.00    -0.303 C  
HETATM   21  C   UNL     1      -8.563   9.477  64.873  1.00  0.00    -0.191 C  
HETATM   22  C   UNL     1      -7.813   8.675  65.909  1.00  0.00    -0.102 C  
HETATM   23  C   UNL     1      -6.471   9.315  66.256  1.00  0.00    -0.066 C  
HETATM   24  C   UNL     1      -7.617   7.243  65.418  1.00  0.00    -0.100 C  
ENDBRANCH  19  20
ENDBRANCH  18  19
ENDBRANCH  17  18
ENDBRANCH  16  17
ENDBRANCH  13  16
ENDBRANCH  11  12
ENDBRANCH   9  11
ENDBRANCH   2   3
TORSDOF 8
ENDMDL
MODEL      320
REMARK 921   NORMALIZED FREE ENERGY PREDICTED BY IDOCK:   -3.36 KCAL/MOL
REMARK 922        TOTAL FREE ENERGY PREDICTED BY IDOCK:   -6.15 KCAL/MOL
REMARK 923 INTER-LIGAND FREE ENERGY PREDICTED BY IDOCK:   -5.06 KCAL/MOL
REMARK 924 INTRA-LIGAND FREE ENERGY PREDICTED BY IDOCK:   -1.09 KCAL/MOL
REMARK 927      BINDING AFFINITY PREDICTED BY RF-SCORE:    0.00 PKD
ROOT
HETATM    1  C   UNL     1      -8.306   8.823  64.430  1.00  0.00    -0.157 C  
HETATM    2  O   UNL     1      -7.658   7.550  64.438  1.00  0.00    -0.096 OA 
ENDROOT
BRANCH   2   3
HETATM    3  C   UNL     1      -8.071   6.717  65.445  1.00  0.00    -0.129 A  
HETATM    4  C   UNL     1      -8.786   5.582  65.063  1.00  0.00    -0.094 A  
HETATM    5  O   UNL     1      -9.047   5.342  63.742  1.00  0.00    -0.344 OA 
HETATM    6  C   UNL     1      -9.282   4.686  66.006  1.00  0.00    -0.144 A  
HETATM    7  C   UNL     1      -9.062   4.935  67.361  1.00  0.00    -0.124 A  
HETATM    8  H   UNL     1      -9.534   4.569  63.482  1.00  0.00     0.000 HD 
HETATM    9  C   UNL     1      -8.328   6.056  67.770  1.00  0.00    -0.112 A  
HETATM   10  C   UNL     1      -7.813   6.932  66.799  1.00  0.00    -0.107 A  
BRANCH   9  11
HETATM   11  C   UNL     1      -8.148   6.392  69.226  1.00  0.00    -0.111 C  
BRANCH  11  12
HETATM   12  N   UNL     1      -9.371   6.257  69.961  1.00  0.00    -0.155 N  
HETATM   13  C   UNL     1      -9.394   5.750  71.239  1.00  0.00    -0.146 C  
HETATM   14  H   UNL     1     -10.247   6.546  69.526  1.00  0.00     0.000 HD 
HETATM   15  O   UNL     1      -8.405   5.392  71.852  1.00  0.00    -0.119 OA 
BRANCH  13  16
HETATM   16  C   UNL     1     -10.795   5.603  71.768  1.00  0.00    -0.301 C  
BRANCH  16  17
HETATM   17  C   UNL     1     -11.029   6.346  73.076  1.00  0.00    -0.269 C  
BRANCH  17  18
HETATM   18  C   UNL     1     -11.273   7.851  72.889  1.00  0.00    -0.429 C  
BRANCH  18  19
HETATM   19  C   UNL     1     -12.454   8.230  71.986  1.00  0.00    -0.393 C  
BRANCH  19  20
HETATM   20  C   UNL     1     -12.569   9.702  71.693  1.00  0.00    -0.493 C  
HETATM   21  C   UNL     1     -11.923  10.373  70.723  1.00  0.00    -0.462 C  
HETATM   22  C   UNL     1     -11.069   9.769  69.635  1.00  0.00    -0.251 C  
HETATM   23  C   UNL     1      -9.597   9.717  70.035  1.00  0.00    -0.281 C  
HETATM   24  C   UNL     1     -11.248  10.553  68.337  1.00  0.00    -0.339 C  
ENDBRANCH  19  20
ENDBRANCH  18  19
ENDBRANCH  17  18
ENDBRANCH  16  17
ENDBRANCH  13  16
ENDBRANCH  11  12
ENDBRANCH   9  11
ENDBRANCH   2   3
TORSDOF 8
ENDMDL
MODEL      321
REMARK 921   NORMALIZED FREE ENERGY PREDICTED BY IDOCK:   -3.33 KCAL/MOL
REMARK 922        TOTAL FREE ENERGY PREDICTED BY IDOCK:   -6.10 KCAL/MOL
REMARK 923 INTER-LIGAND FREE ENERGY PREDICTED BY IDOCK:   -5.45 KCAL/MOL
REMARK 924 INTRA-LIGAND FREE ENERGY PREDICTED BY IDOCK:   -0.64 KCAL/MOL
REMARK 927      BINDING AFFINITY PREDICTED BY RF-SCORE:    0.00 PKD
ROOT
HETATM    1  C   UNL     1      -9.821   3.993  64.404  1.00  0.00    -0.180 C  
HETATM    2  O   UNL     1      -8.554   4.502  64.822  1.00  0.00    -0.125 OA 
ENDROOT
BRANCH   2   3
HETATM    3  C   UNL     1      -8.604   5.768  65.345  1.00  0.00    -0.143 A  
HETATM    4  C   UNL     1      -7.848   6.743  64.694  1.00  0.00    -0.116 A  
HETATM    5  O   UNL     1      -7.103   6.420  63.594  1.00  0.00    -0.048 OA 
HETATM    6  C   UNL     1      -7.800   8.055  65.160  1.00  0.00    -0.116 A  
HETATM    7  C   UNL     1      -8.520   8.395  66.306  1.00  0.00    -0.132 A  
HETATM    8  H   UNL     1      -6.589   7.084  63.151  1.00  0.00     0.000 HD 
HETATM    9  C   UNL     1      -9.305   7.440  66.965  1.00  0.00    -0.183 A  
HETATM   10  C   UNL     1      -9.360   6.129  66.460  1.00  0.00    -0.171 A  
BRANCH   9  11
HETATM   11  C   UNL     1     -10.023   7.760  68.249  1.00  0.00    -0.178 C  
BRANCH  11  12
HETATM   12  N   UNL     1     -10.926   8.862  68.097  1.00  0.00    -0.473 N  
HETATM   13  C   UNL     1     -10.903   9.938  68.952  1.00  0.00    -0.210 C  
HETATM   14  H   UNL     1     -11.603   8.848  67.334  1.00  0.00     0.000 HD 
HETATM   15  O   UNL     1     -10.126  10.059  69.881  1.00  0.00    -0.235 OA 
BRANCH  13  16
HETATM   16  C   UNL     1     -12.009  10.917  68.663  1.00  0.00    -0.185 C  
BRANCH  16  17
HETATM   17  C   UNL     1     -11.584  12.057  67.748  1.00  0.00    -0.400 C  
BRANCH  17  18
HETATM   18  C   UNL     1     -10.628  13.055  68.419  1.00  0.00    -0.264 C  
BRANCH  18  19
HETATM   19  C   UNL     1     -11.050  13.556  69.807  1.00  0.00     0.037 C  
BRANCH  19  20
HETATM   20  C   UNL     1     -12.010  14.716  69.788  1.00  0.00    -0.378 C  
HETATM   21  C   UNL     1     -12.551  15.318  70.863  1.00  0.00    -0.471 C  
HETATM   22  C   UNL     1     -12.194  15.059  72.306  1.00  0.00    -0.439 C  
HETATM   23  C   UNL     1     -13.103  14.003  72.932  1.00  0.00    -0.481 C  
HETATM   24  C   UNL     1     -12.255  16.362  73.099  1.00  0.00    -0.558 C  
ENDBRANCH  19  20
ENDBRANCH  18  19
ENDBRANCH  17  18
ENDBRANCH  16  17
ENDBRANCH  13  16
ENDBRANCH  11  12
ENDBRANCH   9  11
ENDBRANCH   2   3
TORSDOF 8
ENDMDL
MODEL      322
REMARK 921   NORMALIZED FREE ENERGY PREDICTED BY IDOCK:   -3.33 KCAL/MOL
REMARK 922        TOTAL FREE ENERGY PREDICTED BY IDOCK:   -6.10 KCAL/MOL
REMARK 923 INTER-LIGAND FREE ENERGY PREDICTED BY IDOCK:   -5.59 KCAL/MOL
REMARK 924 INTRA-LIGAND FREE ENERGY PREDICTED BY IDOCK:   -0.51 KCAL/MOL
REMARK 927      BINDING AFFINITY PREDICTED BY RF-SCORE:    0.00 PKD
ROOT
HETATM    1  C   UNL     1     -11.739  15.075  72.276  1.00  0.00    -0.330 C  
HETATM    2  O   UNL     1     -12.383  14.617  71.085  1.00  0.00    -0.295 OA 
ENDROOT
BRANCH   2   3
HETATM    3  C   UNL     1     -12.387  13.255  70.939  1.00  0.00    -0.329 A  
HETATM    4  C   UNL     1     -13.125  12.528  71.873  1.00  0.00    -0.368 A  
HETATM    5  O   UNL     1     -13.797  13.173  72.875  1.00  0.00    -0.667 OA 
HETATM    6  C   UNL     1     -13.170  11.137  71.839  1.00  0.00    -0.488 A  
HETATM    7  C   UNL     1     -12.456  10.459  70.850  1.00  0.00    -0.478 A  
HETATM    8  H   UNL     1     -14.300  12.678  73.510  1.00  0.00     0.000 HD 
HETATM    9  C   UNL     1     -11.725  11.165  69.886  1.00  0.00    -0.433 A  
HETATM   10  C   UNL     1     -11.717  12.570  69.925  1.00  0.00    -0.327 A  
BRANCH   9  11
HETATM   11  C   UNL     1     -10.880  10.457  68.862  1.00  0.00    -0.236 C  
BRANCH  11  12
HETATM   12  N   UNL     1     -10.083  11.372  68.100  1.00  0.00    -0.183 N  
HETATM   13  C   UNL     1      -8.743  11.545  68.352  1.00  0.00    -0.160 C  
HETATM   14  H   UNL     1     -10.522  11.908  67.351  1.00  0.00     0.000 HD 
HETATM   15  O   UNL     1      -8.123  10.945  69.211  1.00  0.00    -0.136 OA 
BRANCH  13  16
HETATM   16  C   UNL     1      -8.140  12.630  67.501  1.00  0.00    -0.178 C  
BRANCH  16  17
HETATM   17  C   UNL     1      -6.958  13.329  68.159  1.00  0.00    -0.114 C  
BRANCH  17  18
HETATM   18  C   UNL     1      -6.433  14.528  67.356  1.00  0.00     0.074 C  
BRANCH  18  19
HETATM   19  C   UNL     1      -6.036  15.762  68.179  1.00  0.00    -0.133 C  
BRANCH  19  20
HETATM   20  C   UNL     1      -6.827  15.949  69.446  1.00  0.00    -0.200 C  
HETATM   21  C   UNL     1      -8.130  16.268  69.530  1.00  0.00     0.098 C  
HETATM   22  C   UNL     1      -9.105  16.355  68.382  1.00  0.00    -0.214 C  
HETATM   23  C   UNL     1      -9.199  17.775  67.826  1.00  0.00    -0.256 C  
HETATM   24  C   UNL     1     -10.479  15.858  68.825  1.00  0.00    -0.237 C  
ENDBRANCH  19  20
ENDBRANCH  18  19
ENDBRANCH  17  18
ENDBRANCH  16  17
ENDBRANCH  13  16
ENDBRANCH  11  12
ENDBRANCH   9  11
ENDBRANCH   2   3
TORSDOF 8
ENDMDL
MODEL      323
REMARK 921   NORMALIZED FREE ENERGY PREDICTED BY IDOCK:   -3.31 KCAL/MOL
REMARK 922        TOTAL FREE ENERGY PREDICTED BY IDOCK:   -6.07 KCAL/MOL
REMARK 923 INTER-LIGAND FREE ENERGY PREDICTED BY IDOCK:   -5.29 KCAL/MOL
REMARK 924 INTRA-LIGAND FREE ENERGY PREDICTED BY IDOCK:   -0.77 KCAL/MOL
REMARK 927      BINDING AFFINITY PREDICTED BY RF-SCORE:    0.00 PKD
ROOT
HETATM    1  C   UNL     1     -13.080  12.288  71.939  1.00  0.00    -0.363 C  
HETATM    2  O   UNL     1     -13.381  11.082  71.235  1.00  0.00    -0.229 OA 
ENDROOT
BRANCH   2   3
HETATM    3  C   UNL     1     -12.493  10.064  71.463  1.00  0.00    -0.419 A  
HETATM    4  C   UNL     1     -12.920   9.038  72.306  1.00  0.00    -0.424 A  
HETATM    5  O   UNL     1     -14.167   9.078  72.865  1.00  0.00    -1.042 OA 
HETATM    6  C   UNL     1     -12.085   7.972  72.632  1.00  0.00    -0.283 A  
HETATM    7  C   UNL     1     -10.793   7.936  72.106  1.00  0.00    -0.327 A  
HETATM    8  H   UNL     1     -14.458   8.379  73.438  1.00  0.00     0.000 HD 
HETATM    9  C   UNL     1     -10.348   8.942  71.239  1.00  0.00    -0.355 A  
HETATM   10  C   UNL     1     -11.217   9.994  70.902  1.00  0.00    -0.415 A  
BRANCH   9  11
HETATM   11  C   UNL     1      -8.933   8.970  70.726  1.00  0.00    -0.236 C  
BRANCH  11  12
HETATM   12  N   UNL     1      -8.705   7.966  69.729  1.00  0.00    -0.137 N  
HETATM   13  C   UNL     1      -8.184   6.734  70.051  1.00  0.00    -0.134 C  
HETATM   14  H   UNL     1      -8.934   8.170  68.757  1.00  0.00     0.000 HD 
HETATM   15  O   UNL     1      -7.892   6.387  71.180  1.00  0.00    -0.109 OA 
BRANCH  13  16
HETATM   16  C   UNL     1      -7.933   5.888  68.832  1.00  0.00    -0.102 C  
BRANCH  16  17
HETATM   17  C   UNL     1      -8.894   6.176  67.687  1.00  0.00    -0.103 C  
BRANCH  17  18
HETATM   18  C   UNL     1      -8.225   6.143  66.305  1.00  0.00    -0.116 C  
BRANCH  18  19
HETATM   19  C   UNL     1      -9.052   5.514  65.176  1.00  0.00     0.026 C  
BRANCH  19  20
HETATM   20  C   UNL     1      -9.682   4.191  65.525  1.00  0.00    -0.202 C  
HETATM   21  C   UNL     1      -9.029   3.061  65.852  1.00  0.00    -0.145 C  
HETATM   22  C   UNL     1      -7.545   2.923  66.086  1.00  0.00    -0.076 C  
HETATM   23  C   UNL     1      -6.808   2.512  64.813  1.00  0.00    -0.047 C  
HETATM   24  C   UNL     1      -7.286   1.919  67.207  1.00  0.00    -0.055 C  
ENDBRANCH  19  20
ENDBRANCH  18  19
ENDBRANCH  17  18
ENDBRANCH  16  17
ENDBRANCH  13  16
ENDBRANCH  11  12
ENDBRANCH   9  11
ENDBRANCH   2   3
TORSDOF 8
ENDMDL
MODEL      324
REMARK 921   NORMALIZED FREE ENERGY PREDICTED BY IDOCK:   -3.31 KCAL/MOL
REMARK 922        TOTAL FREE ENERGY PREDICTED BY IDOCK:   -6.07 KCAL/MOL
REMARK 923 INTER-LIGAND FREE ENERGY PREDICTED BY IDOCK:   -5.50 KCAL/MOL
REMARK 924 INTRA-LIGAND FREE ENERGY PREDICTED BY IDOCK:   -0.57 KCAL/MOL
REMARK 927      BINDING AFFINITY PREDICTED BY RF-SCORE:    0.00 PKD
ROOT
HETATM    1  C   UNL     1     -12.836  13.177  66.213  1.00  0.00     0.543 C  
HETATM    2  O   UNL     1     -11.657  12.405  66.449  1.00  0.00    -0.352 OA 
ENDROOT
BRANCH   2   3
HETATM    3  C   UNL     1     -10.592  13.134  66.908  1.00  0.00    -0.263 A  
HETATM    4  C   UNL     1     -10.101  12.797  68.169  1.00  0.00    -0.239 A  
HETATM    5  O   UNL     1     -10.677  11.786  68.887  1.00  0.00    -0.216 OA 
HETATM    6  C   UNL     1      -9.043  13.496  68.747  1.00  0.00     0.090 A  
HETATM    7  C   UNL     1      -8.470  14.559  68.048  1.00  0.00    -0.161 A  
HETATM    8  H   UNL     1     -10.342  11.556  69.745  1.00  0.00     0.000 HD 
HETATM    9  C   UNL     1      -8.930  14.903  66.771  1.00  0.00    -0.295 A  
HETATM   10  C   UNL     1      -9.980  14.166  66.196  1.00  0.00    -0.328 A  
BRANCH   9  11
HETATM   11  C   UNL     1      -8.385  16.097  66.032  1.00  0.00    -0.015 C  
BRANCH  11  12
HETATM   12  N   UNL     1      -8.933  17.326  66.524  1.00  0.00    -0.259 N  
HETATM   13  C   UNL     1     -10.090  17.859  66.008  1.00  0.00    -0.253 C  
HETATM   14  H   UNL     1      -8.451  17.819  67.277  1.00  0.00     0.000 HD 
HETATM   15  O   UNL     1     -10.746  17.343  65.122  1.00  0.00    -0.684 OA 
BRANCH  13  16
HETATM   16  C   UNL     1     -10.413  19.202  66.604  1.00  0.00    -0.529 C  
BRANCH  16  17
HETATM   17  C   UNL     1      -9.424  20.291  66.211  1.00  0.00    -0.387 C  
BRANCH  17  18
HETATM   18  C   UNL     1      -8.476  20.695  67.351  1.00  0.00    -0.299 C  
BRANCH  18  19
HETATM   19  C   UNL     1      -8.633  19.911  68.661  1.00  0.00    -0.134 C  
BRANCH  19  20
HETATM   20  C   UNL     1      -7.594  18.843  68.878  1.00  0.00    -0.337 C  
HETATM   21  C   UNL     1      -6.456  18.972  69.582  1.00  0.00    -0.259 C  
HETATM   22  C   UNL     1      -6.057  20.159  70.424  1.00  0.00    -0.383 C  
HETATM   23  C   UNL     1      -5.215  21.157  69.632  1.00  0.00    -0.316 C  
HETATM   24  C   UNL     1      -5.305  19.687  71.667  1.00  0.00    -0.421 C  
ENDBRANCH  19  20
ENDBRANCH  18  19
ENDBRANCH  17  18
ENDBRANCH  16  17
ENDBRANCH  13  16
ENDBRANCH  11  12
ENDBRANCH   9  11
ENDBRANCH   2   3
TORSDOF 8
ENDMDL
MODEL      325
REMARK 921   NORMALIZED FREE ENERGY PREDICTED BY IDOCK:   -3.30 KCAL/MOL
REMARK 922        TOTAL FREE ENERGY PREDICTED BY IDOCK:   -6.06 KCAL/MOL
REMARK 923 INTER-LIGAND FREE ENERGY PREDICTED BY IDOCK:   -4.02 KCAL/MOL
REMARK 924 INTRA-LIGAND FREE ENERGY PREDICTED BY IDOCK:   -2.04 KCAL/MOL
REMARK 927      BINDING AFFINITY PREDICTED BY RF-SCORE:    0.00 PKD
ROOT
HETATM    1  C   UNL     1      -6.906   9.544  70.629  1.00  0.00    -0.115 C  
HETATM    2  O   UNL     1      -7.463   9.432  71.940  1.00  0.00    -0.251 OA 
ENDROOT
BRANCH   2   3
HETATM    3  C   UNL     1      -8.532   8.578  72.022  1.00  0.00    -0.165 A  
HETATM    4  C   UNL     1      -8.906   8.167  73.302  1.00  0.00    -0.256 A  
HETATM    5  O   UNL     1      -8.218   8.609  74.398  1.00  0.00    -0.396 OA 
HETATM    6  C   UNL     1      -9.956   7.274  73.499  1.00  0.00    -0.366 A  
HETATM    7  C   UNL     1     -10.644   6.779  72.390  1.00  0.00    -0.242 A  
HETATM    8  H   UNL     1      -8.472   8.329  75.269  1.00  0.00     0.000 HD 
HETATM    9  C   UNL     1     -10.303   7.193  71.097  1.00  0.00    -0.214 A  
HETATM   10  C   UNL     1      -9.257   8.116  70.924  1.00  0.00    -0.171 A  
BRANCH   9  11
HETATM   11  C   UNL     1     -10.972   6.611  69.881  1.00  0.00    -0.319 C  
BRANCH  11  12
HETATM   12  N   UNL     1     -10.637   5.230  69.695  1.00  0.00    -0.263 N  
HETATM   13  C   UNL     1      -9.612   4.841  68.865  1.00  0.00    -0.162 C  
HETATM   14  H   UNL     1     -11.172   4.517  70.192  1.00  0.00     0.000 HD 
HETATM   15  O   UNL     1      -8.905   5.611  68.242  1.00  0.00    -0.109 OA 
BRANCH  13  16
HETATM   16  C   UNL     1      -9.515   3.344  68.745  1.00  0.00    -0.201 C  
BRANCH  16  17
HETATM   17  C   UNL     1      -8.661   2.704  69.832  1.00  0.00    -0.126 C  
BRANCH  17  18
HETATM   18  C   UNL     1      -9.486   2.034  70.941  1.00  0.00    -0.204 C  
BRANCH  18  19
HETATM   19  C   UNL     1      -9.314   2.619  72.349  1.00  0.00    -0.151 C  
BRANCH  19  20
HETATM   20  C   UNL     1      -7.939   2.442  72.936  1.00  0.00    -0.054 C  
HETATM   21  C   UNL     1      -7.020   3.408  73.115  1.00  0.00    -0.040 C  
HETATM   22  C   UNL     1      -7.229   4.889  72.910  1.00  0.00    -0.085 C  
HETATM   23  C   UNL     1      -6.837   5.325  71.501  1.00  0.00    -0.053 C  
HETATM   24  C   UNL     1      -6.444   5.675  73.957  1.00  0.00    -0.074 C  
ENDBRANCH  19  20
ENDBRANCH  18  19
ENDBRANCH  17  18
ENDBRANCH  16  17
ENDBRANCH  13  16
ENDBRANCH  11  12
ENDBRANCH   9  11
ENDBRANCH   2   3
TORSDOF 8
ENDMDL
MODEL      326
REMARK 921   NORMALIZED FREE ENERGY PREDICTED BY IDOCK:   -3.29 KCAL/MOL
REMARK 922        TOTAL FREE ENERGY PREDICTED BY IDOCK:   -6.04 KCAL/MOL
REMARK 923 INTER-LIGAND FREE ENERGY PREDICTED BY IDOCK:   -5.26 KCAL/MOL
REMARK 924 INTRA-LIGAND FREE ENERGY PREDICTED BY IDOCK:   -0.79 KCAL/MOL
REMARK 927      BINDING AFFINITY PREDICTED BY RF-SCORE:    0.00 PKD
ROOT
HETATM    1  C   UNL     1     -11.168  10.345  70.053  1.00  0.00    -0.316 C  
HETATM    2  O   UNL     1     -12.139  11.137  69.367  1.00  0.00    -0.333 OA 
ENDROOT
BRANCH   2   3
HETATM    3  C   UNL     1     -11.605  12.141  68.603  1.00  0.00    -0.321 A  
HETATM    4  C   UNL     1     -11.620  13.422  69.155  1.00  0.00    -0.315 A  
HETATM    5  O   UNL     1     -12.151  13.632  70.398  1.00  0.00    -0.332 OA 
HETATM    6  C   UNL     1     -11.133  14.521  68.452  1.00  0.00    -0.271 A  
HETATM    7  C   UNL     1     -10.626  14.333  67.165  1.00  0.00    -0.279 A  
HETATM    8  H   UNL     1     -12.161  14.504  70.774  1.00  0.00     0.000 HD 
HETATM    9  C   UNL     1     -10.579  13.054  66.597  1.00  0.00    -0.275 A  
HETATM   10  C   UNL     1     -11.050  11.956  67.337  1.00  0.00    -0.336 A  
BRANCH   9  11
HETATM   11  C   UNL     1     -10.115  12.838  65.181  1.00  0.00    -0.227 C  
BRANCH  11  12
HETATM   12  N   UNL     1      -9.189  11.749  65.082  1.00  0.00    -0.424 N  
HETATM   13  C   UNL     1      -9.394  10.704  64.212  1.00  0.00    -0.258 C  
HETATM   14  H   UNL     1      -8.357  11.749  65.672  1.00  0.00     0.000 HD 
HETATM   15  O   UNL     1     -10.344  10.617  63.456  1.00  0.00    -0.251 OA 
BRANCH  13  16
HETATM   16  C   UNL     1      -8.350   9.629  64.358  1.00  0.00    -0.171 C  
BRANCH  16  17
HETATM   17  C   UNL     1      -8.771   8.502  65.291  1.00  0.00    -0.175 C  
BRANCH  17  18
HETATM   18  C   UNL     1      -7.691   7.425  65.473  1.00  0.00    -0.107 C  
BRANCH  18  19
HETATM   19  C   UNL     1      -8.165   5.972  65.338  1.00  0.00    -0.141 C  
BRANCH  19  20
HETATM   20  C   UNL     1      -9.602   5.745  65.726  1.00  0.00     0.048 C  
HETATM   21  C   UNL     1     -10.038   5.041  66.786  1.00  0.00    -0.270 C  
HETATM   22  C   UNL     1      -9.184   4.464  67.887  1.00  0.00    -0.170 C  
HETATM   23  C   UNL     1      -8.782   3.020  67.593  1.00  0.00    -0.140 C  
HETATM   24  C   UNL     1      -9.921   4.557  69.222  1.00  0.00    -0.192 C  
ENDBRANCH  19  20
ENDBRANCH  18  19
ENDBRANCH  17  18
ENDBRANCH  16  17
ENDBRANCH  13  16
ENDBRANCH  11  12
ENDBRANCH   9  11
ENDBRANCH   2   3
TORSDOF 8
ENDMDL
MODEL      327
REMARK 921   NORMALIZED FREE ENERGY PREDICTED BY IDOCK:   -3.26 KCAL/MOL
REMARK 922        TOTAL FREE ENERGY PREDICTED BY IDOCK:   -6.01 KCAL/MOL
REMARK 923 INTER-LIGAND FREE ENERGY PREDICTED BY IDOCK:   -4.63 KCAL/MOL
REMARK 924 INTRA-LIGAND FREE ENERGY PREDICTED BY IDOCK:   -1.38 KCAL/MOL
REMARK 927      BINDING AFFINITY PREDICTED BY RF-SCORE:    0.00 PKD
ROOT
HETATM    1  C   UNL     1     -11.904  14.749  68.127  1.00  0.00    -0.287 C  
HETATM    2  O   UNL     1     -11.757  14.625  66.712  1.00  0.00    -0.373 OA 
ENDROOT
BRANCH   2   3
HETATM    3  C   UNL     1     -11.048  13.521  66.317  1.00  0.00    -0.300 A  
HETATM    4  C   UNL     1     -11.712  12.615  65.490  1.00  0.00    -0.402 A  
HETATM    5  O   UNL     1     -13.005  12.845  65.111  1.00  0.00    -0.758 OA 
HETATM    6  C   UNL     1     -11.097  11.442  65.058  1.00  0.00    -0.215 A  
HETATM    7  C   UNL     1      -9.792  11.168  65.468  1.00  0.00    -0.281 A  
HETATM    8  H   UNL     1     -13.457  12.229  64.547  1.00  0.00     0.000 HD 
HETATM    9  C   UNL     1      -9.096  12.072  66.280  1.00  0.00    -0.165 A  
HETATM   10  C   UNL     1      -9.726  13.262  66.682  1.00  0.00    -0.270 A  
BRANCH   9  11
HETATM   11  C   UNL     1      -7.719  11.761  66.805  1.00  0.00    -0.086 C  
BRANCH  11  12
HETATM   12  N   UNL     1      -7.672  10.489  67.462  1.00  0.00    -0.097 N  
HETATM   13  C   UNL     1      -7.640  10.385  68.833  1.00  0.00    -0.103 C  
HETATM   14  H   UNL     1      -7.662   9.638  66.899  1.00  0.00     0.000 HD 
HETATM   15  O   UNL     1      -7.663  11.335  69.593  1.00  0.00     0.082 OA 
BRANCH  13  16
HETATM   16  C   UNL     1      -7.484   8.960  69.292  1.00  0.00    -0.075 C  
BRANCH  16  17
HETATM   17  C   UNL     1      -8.809   8.227  69.447  1.00  0.00    -0.146 C  
BRANCH  17  18
HETATM   18  C   UNL     1      -9.993   8.962  68.802  1.00  0.00    -0.195 C  
BRANCH  18  19
HETATM   19  C   UNL     1     -10.499   8.380  67.475  1.00  0.00    -0.328 C  
BRANCH  19  20
HETATM   20  C   UNL     1      -9.997   6.995  67.168  1.00  0.00    -0.248 C  
HETATM   21  C   UNL     1      -8.932   6.685  66.406  1.00  0.00    -0.161 C  
HETATM   22  C   UNL     1      -7.934   7.658  65.829  1.00  0.00    -0.116 C  
HETATM   23  C   UNL     1      -8.320   8.094  64.417  1.00  0.00    -0.050 C  
HETATM   24  C   UNL     1      -6.538   7.039  65.840  1.00  0.00    -0.052 C  
ENDBRANCH  19  20
ENDBRANCH  18  19
ENDBRANCH  17  18
ENDBRANCH  16  17
ENDBRANCH  13  16
ENDBRANCH  11  12
ENDBRANCH   9  11
ENDBRANCH   2   3
TORSDOF 8
ENDMDL
MODEL      328
REMARK 921   NORMALIZED FREE ENERGY PREDICTED BY IDOCK:   -3.26 KCAL/MOL
REMARK 922        TOTAL FREE ENERGY PREDICTED BY IDOCK:   -6.00 KCAL/MOL
REMARK 923 INTER-LIGAND FREE ENERGY PREDICTED BY IDOCK:   -4.98 KCAL/MOL
REMARK 924 INTRA-LIGAND FREE ENERGY PREDICTED BY IDOCK:   -1.02 KCAL/MOL
REMARK 927      BINDING AFFINITY PREDICTED BY RF-SCORE:    0.00 PKD
ROOT
HETATM    1  C   UNL     1      -9.048  15.334  66.351  1.00  0.00    -0.312 C  
HETATM    2  O   UNL     1      -9.638  14.440  67.296  1.00  0.00    -0.217 OA 
ENDROOT
BRANCH   2   3
HETATM    3  C   UNL     1      -9.088  13.185  67.299  1.00  0.00    -0.217 A  
HETATM    4  C   UNL     1      -8.233  12.880  68.357  1.00  0.00    -0.121 A  
HETATM    5  O   UNL     1      -7.974  13.809  69.327  1.00  0.00    -0.335 OA 
HETATM    6  C   UNL     1      -7.593  11.645  68.440  1.00  0.00    -0.126 A  
HETATM    7  C   UNL     1      -7.811  10.699  67.438  1.00  0.00    -0.110 A  
HETATM    8  H   UNL     1      -7.392  13.601  70.048  1.00  0.00     0.000 HD 
HETATM    9  C   UNL     1      -8.683  10.972  66.377  1.00  0.00    -0.174 A  
HETATM   10  C   UNL     1      -9.338  12.215  66.328  1.00  0.00    -0.221 A  
BRANCH   9  11
HETATM   11  C   UNL     1      -8.870  10.002  65.241  1.00  0.00    -0.178 C  
BRANCH  11  12
HETATM   12  N   UNL     1      -9.424   8.758  65.685  1.00  0.00    -0.435 N  
HETATM   13  C   UNL     1      -8.639   7.644  65.872  1.00  0.00    -0.148 C  
HETATM   14  H   UNL     1     -10.425   8.697  65.868  1.00  0.00     0.000 HD 
HETATM   15  O   UNL     1      -7.435   7.617  65.698  1.00  0.00    -0.074 OA 
BRANCH  13  16
HETATM   16  C   UNL     1      -9.452   6.431  66.236  1.00  0.00    -0.133 C  
BRANCH  16  17
HETATM   17  C   UNL     1      -9.720   6.309  67.730  1.00  0.00    -0.122 C  
BRANCH  17  18
HETATM   18  C   UNL     1     -11.150   6.703  68.129  1.00  0.00    -0.287 C  
BRANCH  18  19
HETATM   19  C   UNL     1     -11.496   6.550  69.616  1.00  0.00    -0.417 C  
BRANCH  19  20
HETATM   20  C   UNL     1     -10.471   5.797  70.422  1.00  0.00    -0.342 C  
HETATM   21  C   UNL     1      -9.691   6.308  71.392  1.00  0.00    -0.191 C  
HETATM   22  C   UNL     1      -9.786   7.696  71.976  1.00  0.00    -0.209 C  
HETATM   23  C   UNL     1      -8.859   8.676  71.260  1.00  0.00    -0.263 C  
HETATM   24  C   UNL     1      -9.475   7.653  73.471  1.00  0.00    -0.347 C  
ENDBRANCH  19  20
ENDBRANCH  18  19
ENDBRANCH  17  18
ENDBRANCH  16  17
ENDBRANCH  13  16
ENDBRANCH  11  12
ENDBRANCH   9  11
ENDBRANCH   2   3
TORSDOF 8
ENDMDL
MODEL      329
REMARK 921   NORMALIZED FREE ENERGY PREDICTED BY IDOCK:   -3.24 KCAL/MOL
REMARK 922        TOTAL FREE ENERGY PREDICTED BY IDOCK:   -5.97 KCAL/MOL
REMARK 923 INTER-LIGAND FREE ENERGY PREDICTED BY IDOCK:   -4.35 KCAL/MOL
REMARK 924 INTRA-LIGAND FREE ENERGY PREDICTED BY IDOCK:   -1.62 KCAL/MOL
REMARK 927      BINDING AFFINITY PREDICTED BY RF-SCORE:    0.00 PKD
ROOT
HETATM    1  C   UNL     1      -9.960  15.436  66.381  1.00  0.00    -0.278 C  
HETATM    2  O   UNL     1     -10.306  14.329  67.215  1.00  0.00    -0.258 OA 
ENDROOT
BRANCH   2   3
HETATM    3  C   UNL     1      -9.644  13.169  66.911  1.00  0.00    -0.248 A  
HETATM    4  C   UNL     1      -8.559  12.837  67.721  1.00  0.00    -0.184 A  
HETATM    5  O   UNL     1      -8.197  13.652  68.759  1.00  0.00    -0.301 OA 
HETATM    6  C   UNL     1      -7.795  11.698  67.480  1.00  0.00    -0.137 A  
HETATM    7  C   UNL     1      -8.122  10.877  66.401  1.00  0.00    -0.164 A  
HETATM    8  H   UNL     1      -7.458  13.426  69.311  1.00  0.00     0.000 HD 
HETATM    9  C   UNL     1      -9.221  11.175  65.585  1.00  0.00    -0.238 A  
HETATM   10  C   UNL     1      -9.994  12.315  65.864  1.00  0.00    -0.272 A  
BRANCH   9  11
HETATM   11  C   UNL     1      -9.543  10.353  64.367  1.00  0.00    -0.316 C  
BRANCH  11  12
HETATM   12  N   UNL     1      -9.051   9.012  64.480  1.00  0.00    -0.428 N  
HETATM   13  C   UNL     1      -8.027   8.549  63.688  1.00  0.00    -0.161 C  
HETATM   14  H   UNL     1      -9.471   8.384  65.165  1.00  0.00     0.000 HD 
HETATM   15  O   UNL     1      -7.449   9.221  62.852  1.00  0.00    -0.104 OA 
BRANCH  13  16
HETATM   16  C   UNL     1      -7.753   7.086  63.909  1.00  0.00    -0.119 C  
BRANCH  16  17
HETATM   17  C   UNL     1      -7.294   6.764  65.325  1.00  0.00    -0.084 C  
BRANCH  17  18
HETATM   18  C   UNL     1      -8.129   5.667  66.003  1.00  0.00    -0.109 C  
BRANCH  18  19
HETATM   19  C   UNL     1      -8.345   5.829  67.513  1.00  0.00    -0.104 C  
BRANCH  19  20
HETATM   20  C   UNL     1      -7.761   7.087  68.097  1.00  0.00    -0.113 C  
HETATM   21  C   UNL     1      -8.451   8.112  68.629  1.00  0.00    -0.127 C  
HETATM   22  C   UNL     1      -9.936   8.149  68.890  1.00  0.00    -0.198 C  
HETATM   23  C   UNL     1     -10.701   8.759  67.717  1.00  0.00    -0.193 C  
HETATM   24  C   UNL     1     -10.220   8.919  70.178  1.00  0.00    -0.218 C  
ENDBRANCH  19  20
ENDBRANCH  18  19
ENDBRANCH  17  18
ENDBRANCH  16  17
ENDBRANCH  13  16
ENDBRANCH  11  12
ENDBRANCH   9  11
ENDBRANCH   2   3
TORSDOF 8
ENDMDL
MODEL      330
REMARK 921   NORMALIZED FREE ENERGY PREDICTED BY IDOCK:   -3.24 KCAL/MOL
REMARK 922        TOTAL FREE ENERGY PREDICTED BY IDOCK:   -5.97 KCAL/MOL
REMARK 923 INTER-LIGAND FREE ENERGY PREDICTED BY IDOCK:   -5.00 KCAL/MOL
REMARK 924 INTRA-LIGAND FREE ENERGY PREDICTED BY IDOCK:   -0.97 KCAL/MOL
REMARK 927      BINDING AFFINITY PREDICTED BY RF-SCORE:    0.00 PKD
ROOT
HETATM    1  C   UNL     1      -9.127  16.290  66.055  1.00  0.00    -0.297 C  
HETATM    2  O   UNL     1     -10.525  16.031  65.915  1.00  0.00    -0.329 OA 
ENDROOT
BRANCH   2   3
HETATM    3  C   UNL     1     -10.850  14.700  65.913  1.00  0.00    -0.312 A  
HETATM    4  C   UNL     1     -11.375  14.184  67.098  1.00  0.00    -0.332 A  
HETATM    5  O   UNL     1     -11.541  14.990  68.190  1.00  0.00    -0.326 OA 
HETATM    6  C   UNL     1     -11.708  12.837  67.217  1.00  0.00    -0.440 A  
HETATM    7  C   UNL     1     -11.506  11.988  66.128  1.00  0.00    -0.401 A  
HETATM    8  H   UNL     1     -11.898  14.639  68.996  1.00  0.00     0.000 HD 
HETATM    9  C   UNL     1     -11.002  12.487  64.920  1.00  0.00    -0.335 A  
HETATM   10  C   UNL     1     -10.699  13.855  64.814  1.00  0.00    -0.437 A  
BRANCH   9  11
HETATM   11  C   UNL     1     -10.697  11.578  63.759  1.00  0.00    -0.408 C  
BRANCH  11  12
HETATM   12  N   UNL     1     -10.206  10.303  64.192  1.00  0.00    -0.449 N  
HETATM   13  C   UNL     1      -8.866   9.997  64.162  1.00  0.00    -0.221 C  
HETATM   14  H   UNL     1     -10.868   9.605  64.531  1.00  0.00     0.000 HD 
HETATM   15  O   UNL     1      -7.996  10.763  63.791  1.00  0.00     0.011 OA 
BRANCH  13  16
HETATM   16  C   UNL     1      -8.600   8.570  64.561  1.00  0.00    -0.055 C  
BRANCH  16  17
HETATM   17  C   UNL     1      -7.726   8.441  65.800  1.00  0.00    -0.094 C  
BRANCH  17  18
HETATM   18  C   UNL     1      -8.278   7.451  66.836  1.00  0.00    -0.121 C  
BRANCH  18  19
HETATM   19  C   UNL     1      -7.555   7.427  68.190  1.00  0.00    -0.114 C  
BRANCH  19  20
HETATM   20  C   UNL     1      -6.145   7.951  68.155  1.00  0.00    -0.042 C  
HETATM   21  C   UNL     1      -5.711   9.105  68.695  1.00  0.00    -0.041 C  
HETATM   22  C   UNL     1      -6.510  10.035  69.574  1.00  0.00    -0.051 C  
HETATM   23  C   UNL     1      -7.195  11.132  68.762  1.00  0.00    -0.098 C  
HETATM   24  C   UNL     1      -5.606  10.642  70.646  1.00  0.00    -0.105 C  
ENDBRANCH  19  20
ENDBRANCH  18  19
ENDBRANCH  17  18
ENDBRANCH  16  17
ENDBRANCH  13  16
ENDBRANCH  11  12
ENDBRANCH   9  11
ENDBRANCH   2   3
TORSDOF 8
ENDMDL
MODEL      331
REMARK 921   NORMALIZED FREE ENERGY PREDICTED BY IDOCK:   -3.24 KCAL/MOL
REMARK 922        TOTAL FREE ENERGY PREDICTED BY IDOCK:   -5.96 KCAL/MOL
REMARK 923 INTER-LIGAND FREE ENERGY PREDICTED BY IDOCK:   -5.25 KCAL/MOL
REMARK 924 INTRA-LIGAND FREE ENERGY PREDICTED BY IDOCK:   -0.71 KCAL/MOL
REMARK 927      BINDING AFFINITY PREDICTED BY RF-SCORE:    0.00 PKD
ROOT
HETATM    1  C   UNL     1      -8.898   4.294  64.918  1.00  0.00    -0.138 C  
HETATM    2  O   UNL     1      -8.067   5.195  65.651  1.00  0.00    -0.109 OA 
ENDROOT
BRANCH   2   3
HETATM    3  C   UNL     1      -8.506   6.493  65.645  1.00  0.00    -0.144 A  
HETATM    4  C   UNL     1      -7.998   7.321  64.644  1.00  0.00    -0.115 A  
HETATM    5  O   UNL     1      -7.106   6.831  63.730  1.00  0.00    -0.052 OA 
HETATM    6  C   UNL     1      -8.351   8.665  64.566  1.00  0.00    -0.157 A  
HETATM    7  C   UNL     1      -9.228   9.194  65.514  1.00  0.00    -0.287 A  
HETATM    8  H   UNL     1      -6.760   7.395  63.048  1.00  0.00     0.000 HD 
HETATM    9  C   UNL     1      -9.770   8.379  66.516  1.00  0.00    -0.330 A  
HETATM   10  C   UNL     1      -9.420   7.018  66.559  1.00  0.00    -0.199 A  
BRANCH   9  11
HETATM   11  C   UNL     1     -10.650   8.942  67.600  1.00  0.00    -0.224 C  
BRANCH  11  12
HETATM   12  N   UNL     1     -11.021  10.301  67.335  1.00  0.00    -0.284 N  
HETATM   13  C   UNL     1     -11.001  11.260  68.321  1.00  0.00    -0.224 C  
HETATM   14  H   UNL     1     -11.307  10.564  66.392  1.00  0.00     0.000 HD 
HETATM   15  O   UNL     1     -10.661  11.053  69.472  1.00  0.00    -0.237 OA 
BRANCH  13  16
HETATM   16  C   UNL     1     -11.531  12.583  67.838  1.00  0.00    -0.369 C  
BRANCH  16  17
HETATM   17  C   UNL     1     -10.441  13.529  67.351  1.00  0.00    -0.247 C  
BRANCH  17  18
HETATM   18  C   UNL     1     -10.471  13.765  65.834  1.00  0.00    -0.300 C  
BRANCH  18  19
HETATM   19  C   UNL     1      -9.842  15.078  65.348  1.00  0.00    -0.312 C  
BRANCH  19  20
HETATM   20  C   UNL     1     -10.643  16.312  65.671  1.00  0.00    -0.360 C  
HETATM   21  C   UNL     1     -10.203  17.392  66.341  1.00  0.00    -0.339 C  
HETATM   22  C   UNL     1      -8.782  17.658  66.773  1.00  0.00    -0.277 C  
HETATM   23  C   UNL     1      -8.519  17.161  68.193  1.00  0.00    -0.227 C  
HETATM   24  C   UNL     1      -8.473  19.149  66.658  1.00  0.00    -0.319 C  
ENDBRANCH  19  20
ENDBRANCH  18  19
ENDBRANCH  17  18
ENDBRANCH  16  17
ENDBRANCH  13  16
ENDBRANCH  11  12
ENDBRANCH   9  11
ENDBRANCH   2   3
TORSDOF 8
ENDMDL
MODEL      332
REMARK 921   NORMALIZED FREE ENERGY PREDICTED BY IDOCK:   -3.24 KCAL/MOL
REMARK 922        TOTAL FREE ENERGY PREDICTED BY IDOCK:   -5.96 KCAL/MOL
REMARK 923 INTER-LIGAND FREE ENERGY PREDICTED BY IDOCK:   -5.52 KCAL/MOL
REMARK 924 INTRA-LIGAND FREE ENERGY PREDICTED BY IDOCK:   -0.44 KCAL/MOL
REMARK 927      BINDING AFFINITY PREDICTED BY RF-SCORE:    0.00 PKD
ROOT
HETATM    1  C   UNL     1      -6.613  15.544  69.634  1.00  0.00    -0.179 C  
HETATM    2  O   UNL     1      -6.903  16.930  69.447  1.00  0.00    -0.237 OA 
ENDROOT
BRANCH   2   3
HETATM    3  C   UNL     1      -8.007  17.171  68.673  1.00  0.00    -0.265 A  
HETATM    4  C   UNL     1      -8.276  18.505  68.366  1.00  0.00    -0.328 A  
HETATM    5  O   UNL     1      -7.460  19.499  68.832  1.00  0.00    -0.353 OA 
HETATM    6  C   UNL     1      -9.391  18.867  67.614  1.00  0.00    -0.331 A  
HETATM    7  C   UNL     1     -10.259  17.870  67.165  1.00  0.00    -0.355 A  
HETATM    8  H   UNL     1      -7.643  20.407  68.622  1.00  0.00     0.000 HD 
HETATM    9  C   UNL     1     -10.000  16.522  67.440  1.00  0.00    -0.267 A  
HETATM   10  C   UNL     1      -8.853  16.179  68.177  1.00  0.00    -0.184 A  
BRANCH   9  11
HETATM   11  C   UNL     1     -10.963  15.437  67.040  1.00  0.00    -0.306 C  
BRANCH  11  12
HETATM   12  N   UNL     1     -10.472  14.134  67.375  1.00  0.00    -0.269 N  
HETATM   13  C   UNL     1     -11.257  13.012  67.252  1.00  0.00    -0.289 C  
HETATM   14  H   UNL     1      -9.515  14.036  67.714  1.00  0.00     0.000 HD 
HETATM   15  O   UNL     1     -12.404  13.019  66.844  1.00  0.00    -0.351 OA 
BRANCH  13  16
HETATM   16  C   UNL     1     -10.566  11.776  67.762  1.00  0.00    -0.232 C  
BRANCH  16  17
HETATM   17  C   UNL     1     -10.736  10.568  66.851  1.00  0.00    -0.281 C  
BRANCH  17  18
HETATM   18  C   UNL     1     -10.889   9.244  67.613  1.00  0.00    -0.188 C  
BRANCH  18  19
HETATM   19  C   UNL     1     -10.045   8.072  67.095  1.00  0.00    -0.334 C  
BRANCH  19  20
HETATM   20  C   UNL     1      -9.962   6.898  68.034  1.00  0.00    -0.175 C  
HETATM   21  C   UNL     1      -9.728   5.619  67.690  1.00  0.00    -0.135 C  
HETATM   22  C   UNL     1      -9.351   5.118  66.318  1.00  0.00    -0.155 C  
HETATM   23  C   UNL     1     -10.578   4.697  65.512  1.00  0.00    -0.208 C  
HETATM   24  C   UNL     1      -8.362   3.961  66.439  1.00  0.00    -0.105 C  
ENDBRANCH  19  20
ENDBRANCH  18  19
ENDBRANCH  17  18
ENDBRANCH  16  17
ENDBRANCH  13  16
ENDBRANCH  11  12
ENDBRANCH   9  11
ENDBRANCH   2   3
TORSDOF 8
ENDMDL
MODEL      333
REMARK 921   NORMALIZED FREE ENERGY PREDICTED BY IDOCK:   -3.23 KCAL/MOL
REMARK 922        TOTAL FREE ENERGY PREDICTED BY IDOCK:   -5.95 KCAL/MOL
REMARK 923 INTER-LIGAND FREE ENERGY PREDICTED BY IDOCK:   -4.85 KCAL/MOL
REMARK 924 INTRA-LIGAND FREE ENERGY PREDICTED BY IDOCK:   -1.10 KCAL/MOL
REMARK 927      BINDING AFFINITY PREDICTED BY RF-SCORE:    0.00 PKD
ROOT
HETATM    1  C   UNL     1      -5.756  13.810  70.922  1.00  0.00    -0.206 C  
HETATM    2  O   UNL     1      -5.681  12.389  71.047  1.00  0.00    -0.336 OA 
ENDROOT
BRANCH   2   3
HETATM    3  C   UNL     1      -6.535  11.708  70.220  1.00  0.00     0.146 A  
HETATM    4  C   UNL     1      -6.613  10.327  70.401  1.00  0.00    -0.126 A  
HETATM    5  O   UNL     1      -5.860   9.713  71.364  1.00  0.00    -0.074 OA 
HETATM    6  C   UNL     1      -7.423   9.534  69.593  1.00  0.00    -0.092 A  
HETATM    7  C   UNL     1      -8.166  10.136  68.577  1.00  0.00    -0.111 A  
HETATM    8  H   UNL     1      -5.914   8.773  71.488  1.00  0.00     0.000 HD 
HETATM    9  C   UNL     1      -8.123  11.523  68.388  1.00  0.00    -0.149 A  
HETATM   10  C   UNL     1      -7.319  12.307  69.234  1.00  0.00     0.183 A  
BRANCH   9  11
HETATM   11  C   UNL     1      -8.849  12.186  67.248  1.00  0.00    -0.186 C  
BRANCH  11  12
HETATM   12  N   UNL     1     -10.006  12.903  67.695  1.00  0.00    -0.214 N  
HETATM   13  C   UNL     1     -11.006  13.273  66.827  1.00  0.00    -0.287 C  
HETATM   14  H   UNL     1     -10.091  13.144  68.682  1.00  0.00     0.000 HD 
HETATM   15  O   UNL     1     -11.009  13.021  65.636  1.00  0.00    -0.271 OA 
BRANCH  13  16
HETATM   16  C   UNL     1     -12.064  14.106  67.500  1.00  0.00    -0.363 C  
BRANCH  16  17
HETATM   17  C   UNL     1     -11.970  14.090  69.019  1.00  0.00    -0.392 C  
BRANCH  17  18
HETATM   18  C   UNL     1     -12.135  15.478  69.656  1.00  0.00    -0.352 C  
BRANCH  18  19
HETATM   19  C   UNL     1     -10.865  16.093  70.259  1.00  0.00    -0.300 C  
BRANCH  19  20
HETATM   20  C   UNL     1      -9.643  15.982  69.387  1.00  0.00    -0.236 C  
HETATM   21  C   UNL     1      -9.132  16.952  68.606  1.00  0.00    -0.265 C  
HETATM   22  C   UNL     1      -9.584  18.390  68.558  1.00  0.00    -0.368 C  
HETATM   23  C   UNL     1     -10.635  18.617  67.473  1.00  0.00    -0.472 C  
HETATM   24  C   UNL     1      -8.382  19.307  68.343  1.00  0.00    -0.383 C  
ENDBRANCH  19  20
ENDBRANCH  18  19
ENDBRANCH  17  18
ENDBRANCH  16  17
ENDBRANCH  13  16
ENDBRANCH  11  12
ENDBRANCH   9  11
ENDBRANCH   2   3
TORSDOF 8
ENDMDL
MODEL      334
REMARK 921   NORMALIZED FREE ENERGY PREDICTED BY IDOCK:   -3.21 KCAL/MOL
REMARK 922        TOTAL FREE ENERGY PREDICTED BY IDOCK:   -5.93 KCAL/MOL
REMARK 923 INTER-LIGAND FREE ENERGY PREDICTED BY IDOCK:   -4.60 KCAL/MOL
REMARK 924 INTRA-LIGAND FREE ENERGY PREDICTED BY IDOCK:   -1.33 KCAL/MOL
REMARK 927      BINDING AFFINITY PREDICTED BY RF-SCORE:    0.00 PKD
ROOT
HETATM    1  C   UNL     1      -5.582  14.495  71.426  1.00  0.00    -0.132 C  
HETATM    2  O   UNL     1      -5.387  13.249  70.755  1.00  0.00    -0.125 OA 
ENDROOT
BRANCH   2   3
HETATM    3  C   UNL     1      -6.078  13.133  69.577  1.00  0.00    -0.114 A  
HETATM    4  C   UNL     1      -6.084  11.874  68.977  1.00  0.00    -0.071 A  
HETATM    5  O   UNL     1      -5.421  10.828  69.559  1.00  0.00    -0.038 OA 
HETATM    6  C   UNL     1      -6.726  11.652  67.761  1.00  0.00    -0.072 A  
HETATM    7  C   UNL     1      -7.372  12.717  67.131  1.00  0.00    -0.043 A  
HETATM    8  H   UNL     1      -5.426   9.971  69.150  1.00  0.00     0.000 HD 
HETATM    9  C   UNL     1      -7.400  13.985  67.723  1.00  0.00    -0.176 A  
HETATM   10  C   UNL     1      -6.768  14.179  68.964  1.00  0.00    -0.107 A  
BRANCH   9  11
HETATM   11  C   UNL     1      -8.016  15.168  67.024  1.00  0.00    -0.188 C  
BRANCH  11  12
HETATM   12  N   UNL     1      -8.978  14.767  66.041  1.00  0.00    -0.473 N  
HETATM   13  C   UNL     1     -10.329  14.920  66.247  1.00  0.00    -0.294 C  
HETATM   14  H   UNL     1      -8.652  14.357  65.165  1.00  0.00     0.000 HD 
HETATM   15  O   UNL     1     -10.818  15.411  67.248  1.00  0.00    -0.306 OA 
BRANCH  13  16
HETATM   16  C   UNL     1     -11.145  14.332  65.128  1.00  0.00    -0.354 C  
BRANCH  16  17
HETATM   17  C   UNL     1     -10.432  13.211  64.384  1.00  0.00    -0.427 C  
BRANCH  17  18
HETATM   18  C   UNL     1     -10.194  11.962  65.246  1.00  0.00    -0.309 C  
BRANCH  18  19
HETATM   19  C   UNL     1     -11.321  11.597  66.222  1.00  0.00    -0.293 C  
BRANCH  19  20
HETATM   20  C   UNL     1     -10.897  11.521  67.665  1.00  0.00    -0.277 C  
HETATM   21  C   UNL     1     -10.245  10.499  68.249  1.00  0.00    -0.185 C  
HETATM   22  C   UNL     1      -9.670   9.292  67.551  1.00  0.00    -0.201 C  
HETATM   23  C   UNL     1     -10.658   8.128  67.527  1.00  0.00    -0.291 C  
HETATM   24  C   UNL     1      -8.363   8.875  68.223  1.00  0.00    -0.125 C  
ENDBRANCH  19  20
ENDBRANCH  18  19
ENDBRANCH  17  18
ENDBRANCH  16  17
ENDBRANCH  13  16
ENDBRANCH  11  12
ENDBRANCH   9  11
ENDBRANCH   2   3
TORSDOF 8
ENDMDL
MODEL      335
REMARK 921   NORMALIZED FREE ENERGY PREDICTED BY IDOCK:   -3.21 KCAL/MOL
REMARK 922        TOTAL FREE ENERGY PREDICTED BY IDOCK:   -5.93 KCAL/MOL
REMARK 923 INTER-LIGAND FREE ENERGY PREDICTED BY IDOCK:   -4.44 KCAL/MOL
REMARK 924 INTRA-LIGAND FREE ENERGY PREDICTED BY IDOCK:   -1.49 KCAL/MOL
REMARK 927      BINDING AFFINITY PREDICTED BY RF-SCORE:    0.00 PKD
ROOT
HETATM    1  C   UNL     1      -9.714   3.058  64.435  1.00  0.00    -0.146 C  
HETATM    2  O   UNL     1      -8.570   3.551  65.135  1.00  0.00    -0.107 OA 
ENDROOT
BRANCH   2   3
HETATM    3  C   UNL     1      -8.869   4.260  66.268  1.00  0.00    -0.116 A  
HETATM    4  C   UNL     1      -8.864   5.650  66.155  1.00  0.00    -0.142 A  
HETATM    5  O   UNL     1      -8.569   6.245  64.960  1.00  0.00    -0.299 OA 
HETATM    6  C   UNL     1      -9.121   6.468  67.253  1.00  0.00    -0.117 A  
HETATM    7  C   UNL     1      -9.383   5.881  68.491  1.00  0.00    -0.127 A  
HETATM    8  H   UNL     1      -8.566   7.192  64.883  1.00  0.00     0.000 HD 
HETATM    9  C   UNL     1      -9.416   4.487  68.626  1.00  0.00    -0.220 A  
HETATM   10  C   UNL     1      -9.181   3.681  67.499  1.00  0.00    -0.224 A  
BRANCH   9  11
HETATM   11  C   UNL     1      -9.613   3.830  69.966  1.00  0.00    -0.188 C  
BRANCH  11  12
HETATM   12  N   UNL     1     -10.276   4.696  70.895  1.00  0.00    -0.186 N  
HETATM   13  C   UNL     1      -9.721   5.007  72.115  1.00  0.00    -0.161 C  
HETATM   14  H   UNL     1     -11.182   5.093  70.646  1.00  0.00     0.000 HD 
HETATM   15  O   UNL     1      -8.641   4.600  72.500  1.00  0.00    -0.113 OA 
BRANCH  13  16
HETATM   16  C   UNL     1     -10.643   5.843  72.961  1.00  0.00    -0.270 C  
BRANCH  16  17
HETATM   17  C   UNL     1     -11.969   6.156  72.283  1.00  0.00    -0.285 C  
BRANCH  17  18
HETATM   18  C   UNL     1     -11.971   7.496  71.532  1.00  0.00    -0.336 C  
BRANCH  18  19
HETATM   19  C   UNL     1     -11.050   8.583  72.102  1.00  0.00    -0.436 C  
BRANCH  19  20
HETATM   20  C   UNL     1     -10.172   9.257  71.082  1.00  0.00    -0.387 C  
HETATM   21  C   UNL     1      -8.869   9.005  70.863  1.00  0.00    -0.294 C  
HETATM   22  C   UNL     1      -8.058   7.894  71.484  1.00  0.00    -0.117 C  
HETATM   23  C   UNL     1      -7.349   8.355  72.755  1.00  0.00    -0.113 C  
HETATM   24  C   UNL     1      -7.051   7.355  70.470  1.00  0.00    -0.057 C  
ENDBRANCH  19  20
ENDBRANCH  18  19
ENDBRANCH  17  18
ENDBRANCH  16  17
ENDBRANCH  13  16
ENDBRANCH  11  12
ENDBRANCH   9  11
ENDBRANCH   2   3
TORSDOF 8
ENDMDL
MODEL      336
REMARK 921   NORMALIZED FREE ENERGY PREDICTED BY IDOCK:   -3.20 KCAL/MOL
REMARK 922        TOTAL FREE ENERGY PREDICTED BY IDOCK:   -5.91 KCAL/MOL
REMARK 923 INTER-LIGAND FREE ENERGY PREDICTED BY IDOCK:   -4.68 KCAL/MOL
REMARK 924 INTRA-LIGAND FREE ENERGY PREDICTED BY IDOCK:   -1.23 KCAL/MOL
REMARK 927      BINDING AFFINITY PREDICTED BY RF-SCORE:    0.00 PKD
ROOT
HETATM    1  C   UNL     1      -8.064   6.751  65.719  1.00  0.00    -0.123 C  
HETATM    2  O   UNL     1      -9.279   7.487  65.564  1.00  0.00     0.086 OA 
ENDROOT
BRANCH   2   3
HETATM    3  C   UNL     1      -9.388   8.569  66.397  1.00  0.00    -0.213 A  
HETATM    4  C   UNL     1      -9.590   9.808  65.789  1.00  0.00    -0.254 A  
HETATM    5  O   UNL     1      -9.668   9.905  64.427  1.00  0.00    -0.388 OA 
HETATM    6  C   UNL     1      -9.681  10.979  66.538  1.00  0.00    -0.230 A  
HETATM    7  C   UNL     1      -9.561  10.907  67.927  1.00  0.00    -0.175 A  
HETATM    8  H   UNL     1      -9.805  10.748  64.013  1.00  0.00     0.000 HD 
HETATM    9  C   UNL     1      -9.381   9.673  68.564  1.00  0.00    -0.138 A  
HETATM   10  C   UNL     1      -9.319   8.502  67.789  1.00  0.00    -0.153 A  
BRANCH   9  11
HETATM   11  C   UNL     1      -9.165   9.578  70.051  1.00  0.00    -0.234 C  
BRANCH  11  12
HETATM   12  N   UNL     1     -10.246   8.903  70.706  1.00  0.00    -0.209 N  
HETATM   13  C   UNL     1     -10.165   8.521  72.025  1.00  0.00    -0.321 C  
HETATM   14  H   UNL     1     -11.097   8.701  70.182  1.00  0.00     0.000 HD 
HETATM   15  O   UNL     1      -9.202   8.728  72.741  1.00  0.00    -0.305 OA 
BRANCH  13  16
HETATM   16  C   UNL     1     -11.372   7.737  72.465  1.00  0.00    -0.429 C  
BRANCH  16  17
HETATM   17  C   UNL     1     -11.337   6.278  72.030  1.00  0.00    -0.348 C  
BRANCH  17  18
HETATM   18  C   UNL     1     -10.626   5.359  73.034  1.00  0.00    -0.274 C  
BRANCH  18  19
HETATM   19  C   UNL     1      -9.416   4.586  72.493  1.00  0.00    -0.173 C  
BRANCH  19  20
HETATM   20  C   UNL     1      -8.642   5.307  71.421  1.00  0.00    -0.132 C  
HETATM   21  C   UNL     1      -8.808   5.171  70.093  1.00  0.00    -0.139 C  
HETATM   22  C   UNL     1      -9.899   4.390  69.404  1.00  0.00    -0.239 C  
HETATM   23  C   UNL     1      -9.463   2.959  69.097  1.00  0.00    -0.154 C  
HETATM   24  C   UNL     1     -10.328   5.110  68.127  1.00  0.00    -0.140 C  
ENDBRANCH  19  20
ENDBRANCH  18  19
ENDBRANCH  17  18
ENDBRANCH  16  17
ENDBRANCH  13  16
ENDBRANCH  11  12
ENDBRANCH   9  11
ENDBRANCH   2   3
TORSDOF 8
ENDMDL
MODEL      337
REMARK 921   NORMALIZED FREE ENERGY PREDICTED BY IDOCK:   -3.19 KCAL/MOL
REMARK 922        TOTAL FREE ENERGY PREDICTED BY IDOCK:   -5.90 KCAL/MOL
REMARK 923 INTER-LIGAND FREE ENERGY PREDICTED BY IDOCK:   -4.91 KCAL/MOL
REMARK 924 INTRA-LIGAND FREE ENERGY PREDICTED BY IDOCK:   -0.99 KCAL/MOL
REMARK 927      BINDING AFFINITY PREDICTED BY RF-SCORE:    0.00 PKD
ROOT
HETATM    1  C   UNL     1      -8.252  11.061  62.375  1.00  0.00    -0.187 C  
HETATM    2  O   UNL     1      -8.407   9.769  62.965  1.00  0.00    -0.142 OA 
ENDROOT
BRANCH   2   3
HETATM    3  C   UNL     1      -8.468   9.782  64.334  1.00  0.00    -0.179 A  
HETATM    4  C   UNL     1      -9.661  10.227  64.902  1.00  0.00    -0.320 A  
HETATM    5  O   UNL     1     -10.698  10.627  64.105  1.00  0.00    -0.397 OA 
HETATM    6  C   UNL     1      -9.820  10.313  66.283  1.00  0.00    -0.276 A  
HETATM    7  C   UNL     1      -8.758   9.950  67.112  1.00  0.00    -0.136 A  
HETATM    8  H   UNL     1     -11.511  10.930  64.492  1.00  0.00     0.000 HD 
HETATM    9  C   UNL     1      -7.557   9.478  66.567  1.00  0.00    -0.094 A  
HETATM   10  C   UNL     1      -7.430   9.374  65.171  1.00  0.00    -0.105 A  
BRANCH   9  11
HETATM   11  C   UNL     1      -6.369   9.160  67.436  1.00  0.00    -0.059 C  
BRANCH  11  12
HETATM   12  N   UNL     1      -6.736   8.377  68.579  1.00  0.00    -0.062 N  
HETATM   13  C   UNL     1      -6.787   7.004  68.527  1.00  0.00    -0.073 C  
HETATM   14  H   UNL     1      -6.965   8.851  69.453  1.00  0.00     0.000 HD 
HETATM   15  O   UNL     1      -6.519   6.344  67.540  1.00  0.00    -0.045 OA 
BRANCH  13  16
HETATM   16  C   UNL     1      -7.299   6.406  69.810  1.00  0.00    -0.080 C  
BRANCH  16  17
HETATM   17  C   UNL     1      -8.618   7.008  70.274  1.00  0.00    -0.140 C  
BRANCH  17  18
HETATM   18  C   UNL     1      -9.843   6.416  69.562  1.00  0.00    -0.176 C  
BRANCH  18  19
HETATM   19  C   UNL     1     -11.175   6.527  70.316  1.00  0.00    -0.433 C  
BRANCH  19  20
HETATM   20  C   UNL     1     -11.065   7.131  71.691  1.00  0.00    -0.264 C  
HETATM   21  C   UNL     1     -11.351   8.401  72.027  1.00  0.00    -0.411 C  
HETATM   22  C   UNL     1     -11.984   9.441  71.135  1.00  0.00    -0.413 C  
HETATM   23  C   UNL     1     -10.933  10.284  70.416  1.00  0.00    -0.365 C  
HETATM   24  C   UNL     1     -12.921  10.328  71.951  1.00  0.00    -0.554 C  
ENDBRANCH  19  20
ENDBRANCH  18  19
ENDBRANCH  17  18
ENDBRANCH  16  17
ENDBRANCH  13  16
ENDBRANCH  11  12
ENDBRANCH   9  11
ENDBRANCH   2   3
TORSDOF 8
ENDMDL
MODEL      338
REMARK 921   NORMALIZED FREE ENERGY PREDICTED BY IDOCK:   -3.18 KCAL/MOL
REMARK 922        TOTAL FREE ENERGY PREDICTED BY IDOCK:   -5.89 KCAL/MOL
REMARK 923 INTER-LIGAND FREE ENERGY PREDICTED BY IDOCK:   -5.46 KCAL/MOL
REMARK 924 INTRA-LIGAND FREE ENERGY PREDICTED BY IDOCK:   -0.43 KCAL/MOL
REMARK 927      BINDING AFFINITY PREDICTED BY RF-SCORE:    0.00 PKD
ROOT
HETATM    1  C   UNL     1     -10.168  19.560  66.167  1.00  0.00    -0.496 C  
HETATM    2  O   UNL     1      -8.923  19.958  65.588  1.00  0.00    -0.301 OA 
ENDROOT
BRANCH   2   3
HETATM    3  C   UNL     1      -7.826  19.636  66.343  1.00  0.00    -0.309 A  
HETATM    4  C   UNL     1      -6.643  20.313  66.048  1.00  0.00    -0.227 A  
HETATM    5  O   UNL     1      -6.613  21.245  65.046  1.00  0.00    -0.478 OA 
HETATM    6  C   UNL     1      -5.461  20.040  66.730  1.00  0.00    -0.178 A  
HETATM    7  C   UNL     1      -5.462  19.063  67.726  1.00  0.00    -0.173 A  
HETATM    8  H   UNL     1      -5.807  21.706  64.846  1.00  0.00     0.000 HD 
HETATM    9  C   UNL     1      -6.641  18.384  68.058  1.00  0.00    -0.210 A  
HETATM   10  C   UNL     1      -7.829  18.696  67.374  1.00  0.00    -0.242 A  
BRANCH   9  11
HETATM   11  C   UNL     1      -6.651  17.269  69.069  1.00  0.00    -0.230 C  
BRANCH  11  12
HETATM   12  N   UNL     1      -6.523  15.984  68.449  1.00  0.00    -0.116 N  
HETATM   13  C   UNL     1      -6.933  14.833  69.080  1.00  0.00    -0.138 C  
HETATM   14  H   UNL     1      -6.118  15.920  67.515  1.00  0.00     0.000 HD 
HETATM   15  O   UNL     1      -7.442  14.802  70.186  1.00  0.00     0.020 OA 
BRANCH  13  16
HETATM   16  C   UNL     1      -6.603  13.599  68.285  1.00  0.00    -0.108 C  
BRANCH  16  17
HETATM   17  C   UNL     1      -7.621  13.292  67.195  1.00  0.00     0.014 C  
BRANCH  17  18
HETATM   18  C   UNL     1      -8.601  14.445  66.932  1.00  0.00    -0.191 C  
BRANCH  18  19
HETATM   19  C   UNL     1      -9.704  14.164  65.903  1.00  0.00    -0.267 C  
BRANCH  19  20
HETATM   20  C   UNL     1     -11.078  14.618  66.320  1.00  0.00    -0.336 C  
HETATM   21  C   UNL     1     -11.806  14.120  67.335  1.00  0.00    -0.447 C  
HETATM   22  C   UNL     1     -11.340  13.114  68.359  1.00  0.00    -0.324 C  
HETATM   23  C   UNL     1     -11.675  11.684  67.939  1.00  0.00    -0.329 C  
HETATM   24  C   UNL     1     -11.954  13.434  69.720  1.00  0.00    -0.396 C  
ENDBRANCH  19  20
ENDBRANCH  18  19
ENDBRANCH  17  18
ENDBRANCH  16  17
ENDBRANCH  13  16
ENDBRANCH  11  12
ENDBRANCH   9  11
ENDBRANCH   2   3
TORSDOF 8
ENDMDL
MODEL      339
REMARK 921   NORMALIZED FREE ENERGY PREDICTED BY IDOCK:   -3.18 KCAL/MOL
REMARK 922        TOTAL FREE ENERGY PREDICTED BY IDOCK:   -5.88 KCAL/MOL
REMARK 923 INTER-LIGAND FREE ENERGY PREDICTED BY IDOCK:   -5.37 KCAL/MOL
REMARK 924 INTRA-LIGAND FREE ENERGY PREDICTED BY IDOCK:   -0.51 KCAL/MOL
REMARK 927      BINDING AFFINITY PREDICTED BY RF-SCORE:    0.00 PKD
ROOT
HETATM    1  C   UNL     1     -10.843   5.852  66.870  1.00  0.00    -0.296 C  
HETATM    2  O   UNL     1      -9.535   5.759  67.438  1.00  0.00    -0.111 OA 
ENDROOT
BRANCH   2   3
HETATM    3  C   UNL     1      -8.710   6.805  67.118  1.00  0.00    -0.119 A  
HETATM    4  C   UNL     1      -7.779   7.186  68.084  1.00  0.00    -0.117 A  
HETATM    5  O   UNL     1      -7.721   6.531  69.283  1.00  0.00    -0.097 OA 
HETATM    6  C   UNL     1      -6.914   8.258  67.876  1.00  0.00    -0.078 A  
HETATM    7  C   UNL     1      -6.987   8.966  66.676  1.00  0.00    -0.080 A  
HETATM    8  H   UNL     1      -7.087   6.790  69.941  1.00  0.00     0.000 HD 
HETATM    9  C   UNL     1      -7.897   8.589  65.680  1.00  0.00    -0.102 A  
HETATM   10  C   UNL     1      -8.741   7.487  65.901  1.00  0.00    -0.170 A  
BRANCH   9  11
HETATM   11  C   UNL     1      -8.053   9.387  64.413  1.00  0.00    -0.138 C  
BRANCH  11  12
HETATM   12  N   UNL     1      -9.048  10.410  64.544  1.00  0.00    -0.210 N  
HETATM   13  C   UNL     1      -9.780  10.848  63.465  1.00  0.00    -0.342 C  
HETATM   14  H   UNL     1      -9.218  10.824  65.460  1.00  0.00     0.000 HD 
HETATM   15  O   UNL     1      -9.664  10.409  62.335  1.00  0.00    -0.224 OA 
BRANCH  13  16
HETATM   16  C   UNL     1     -10.685  11.997  63.820  1.00  0.00    -0.478 C  
BRANCH  16  17
HETATM   17  C   UNL     1     -10.362  12.626  65.168  1.00  0.00    -0.312 C  
BRANCH  17  18
HETATM   18  C   UNL     1     -11.007  14.005  65.369  1.00  0.00    -0.321 C  
BRANCH  18  19
HETATM   19  C   UNL     1     -10.095  15.093  65.952  1.00  0.00    -0.349 C  
BRANCH  19  20
HETATM   20  C   UNL     1     -10.533  15.626  67.290  1.00  0.00    -0.292 C  
HETATM   21  C   UNL     1     -10.428  16.899  67.712  1.00  0.00    -0.340 C  
HETATM   22  C   UNL     1      -9.994  18.082  66.882  1.00  0.00    -0.340 C  
HETATM   23  C   UNL     1      -8.492  18.335  67.001  1.00  0.00    -0.256 C  
HETATM   24  C   UNL     1     -10.784  19.323  67.292  1.00  0.00    -0.594 C  
ENDBRANCH  19  20
ENDBRANCH  18  19
ENDBRANCH  17  18
ENDBRANCH  16  17
ENDBRANCH  13  16
ENDBRANCH  11  12
ENDBRANCH   9  11
ENDBRANCH   2   3
TORSDOF 8
ENDMDL
MODEL      340
REMARK 921   NORMALIZED FREE ENERGY PREDICTED BY IDOCK:   -3.15 KCAL/MOL
REMARK 922        TOTAL FREE ENERGY PREDICTED BY IDOCK:   -5.84 KCAL/MOL
REMARK 923 INTER-LIGAND FREE ENERGY PREDICTED BY IDOCK:   -4.68 KCAL/MOL
REMARK 924 INTRA-LIGAND FREE ENERGY PREDICTED BY IDOCK:   -1.16 KCAL/MOL
REMARK 927      BINDING AFFINITY PREDICTED BY RF-SCORE:    0.00 PKD
ROOT
HETATM    1  C   UNL     1      -9.104   9.475  64.722  1.00  0.00    -0.218 C  
HETATM    2  O   UNL     1      -8.387   8.247  64.856  1.00  0.00    -0.159 OA 
ENDROOT
BRANCH   2   3
HETATM    3  C   UNL     1      -8.470   7.683  66.102  1.00  0.00    -0.143 A  
HETATM    4  C   UNL     1      -8.963   6.379  66.167  1.00  0.00    -0.150 A  
HETATM    5  O   UNL     1      -9.338   5.725  65.026  1.00  0.00    -0.352 OA 
HETATM    6  C   UNL     1      -9.120   5.723  67.385  1.00  0.00    -0.110 A  
HETATM    7  C   UNL     1      -8.783   6.389  68.564  1.00  0.00    -0.121 A  
HETATM    8  H   UNL     1      -9.672   4.838  65.070  1.00  0.00     0.000 HD 
HETATM    9  C   UNL     1      -8.265   7.690  68.525  1.00  0.00    -0.125 A  
HETATM   10  C   UNL     1      -8.089   8.322  67.282  1.00  0.00    -0.109 A  
BRANCH   9  11
HETATM   11  C   UNL     1      -7.973   8.460  69.785  1.00  0.00    -0.104 C  
BRANCH  11  12
HETATM   12  N   UNL     1      -9.022   8.323  70.752  1.00  0.00    -0.143 N  
HETATM   13  C   UNL     1     -10.170   9.077  70.684  1.00  0.00    -0.229 C  
HETATM   14  H   UNL     1      -8.914   7.648  71.509  1.00  0.00     0.000 HD 
HETATM   15  O   UNL     1     -10.401   9.896  69.814  1.00  0.00    -0.213 OA 
BRANCH  13  16
HETATM   16  C   UNL     1     -11.077   8.838  71.861  1.00  0.00    -0.434 C  
BRANCH  16  17
HETATM   17  C   UNL     1     -12.208   7.863  71.564  1.00  0.00    -0.338 C  
BRANCH  17  18
HETATM   18  C   UNL     1     -11.778   6.390  71.632  1.00  0.00    -0.367 C  
BRANCH  18  19
HETATM   19  C   UNL     1     -11.090   5.953  72.932  1.00  0.00    -0.306 C  
BRANCH  19  20
HETATM   20  C   UNL     1     -11.339   4.519  73.320  1.00  0.00    -0.364 C  
HETATM   21  C   UNL     1     -10.639   3.450  72.902  1.00  0.00    -0.213 C  
HETATM   22  C   UNL     1      -9.370   3.476  72.085  1.00  0.00    -0.178 C  
HETATM   23  C   UNL     1      -9.659   3.376  70.589  1.00  0.00    -0.238 C  
HETATM   24  C   UNL     1      -8.440   2.350  72.531  1.00  0.00    -0.063 C  
ENDBRANCH  19  20
ENDBRANCH  18  19
ENDBRANCH  17  18
ENDBRANCH  16  17
ENDBRANCH  13  16
ENDBRANCH  11  12
ENDBRANCH   9  11
ENDBRANCH   2   3
TORSDOF 8
ENDMDL
MODEL      341
REMARK 921   NORMALIZED FREE ENERGY PREDICTED BY IDOCK:   -3.14 KCAL/MOL
REMARK 922        TOTAL FREE ENERGY PREDICTED BY IDOCK:   -5.83 KCAL/MOL
REMARK 923 INTER-LIGAND FREE ENERGY PREDICTED BY IDOCK:   -4.87 KCAL/MOL
REMARK 924 INTRA-LIGAND FREE ENERGY PREDICTED BY IDOCK:   -0.95 KCAL/MOL
REMARK 927      BINDING AFFINITY PREDICTED BY RF-SCORE:    0.00 PKD
ROOT
HETATM    1  C   UNL     1     -11.443  10.129  70.343  1.00  0.00    -0.322 C  
HETATM    2  O   UNL     1     -12.139  10.935  69.390  1.00  0.00    -0.328 OA 
ENDROOT
BRANCH   2   3
HETATM    3  C   UNL     1     -11.354  11.393  68.365  1.00  0.00    -0.281 A  
HETATM    4  C   UNL     1     -11.432  12.756  68.078  1.00  0.00    -0.318 A  
HETATM    5  O   UNL     1     -12.262  13.567  68.801  1.00  0.00    -0.317 OA 
HETATM    6  C   UNL     1     -10.704  13.321  67.034  1.00  0.00    -0.263 A  
HETATM    7  C   UNL     1      -9.884  12.502  66.257  1.00  0.00    -0.260 A  
HETATM    8  H   UNL     1     -12.315  14.495  68.607  1.00  0.00     0.000 HD 
HETATM    9  C   UNL     1      -9.770  11.134  66.538  1.00  0.00    -0.228 A  
HETATM   10  C   UNL     1     -10.494  10.591  67.614  1.00  0.00    -0.276 A  
BRANCH   9  11
HETATM   11  C   UNL     1      -8.959  10.215  65.665  1.00  0.00    -0.171 C  
BRANCH  11  12
HETATM   12  N   UNL     1      -8.247   9.237  66.432  1.00  0.00    -0.110 N  
HETATM   13  C   UNL     1      -8.375   7.891  66.183  1.00  0.00    -0.127 C  
HETATM   14  H   UNL     1      -7.629   9.547  67.182  1.00  0.00     0.000 HD 
HETATM   15  O   UNL     1      -9.073   7.420  65.304  1.00  0.00     0.173 OA 
BRANCH  13  16
HETATM   16  C   UNL     1      -7.620   7.054  67.180  1.00  0.00    -0.107 C  
BRANCH  16  17
HETATM   17  C   UNL     1      -8.135   7.200  68.606  1.00  0.00    -0.124 C  
BRANCH  17  18
HETATM   18  C   UNL     1      -8.071   5.897  69.415  1.00  0.00    -0.109 C  
BRANCH  18  19
HETATM   19  C   UNL     1      -9.420   5.326  69.872  1.00  0.00    -0.211 C  
BRANCH  19  20
HETATM   20  C   UNL     1     -10.441   6.364  70.255  1.00  0.00    -0.270 C  
HETATM   21  C   UNL     1     -10.895   6.612  71.497  1.00  0.00    -0.277 C  
HETATM   22  C   UNL     1     -10.369   6.012  72.777  1.00  0.00    -0.223 C  
HETATM   23  C   UNL     1     -11.142   4.756  73.172  1.00  0.00    -0.388 C  
HETATM   24  C   UNL     1     -10.417   7.049  73.897  1.00  0.00    -0.332 C  
ENDBRANCH  19  20
ENDBRANCH  18  19
ENDBRANCH  17  18
ENDBRANCH  16  17
ENDBRANCH  13  16
ENDBRANCH  11  12
ENDBRANCH   9  11
ENDBRANCH   2   3
TORSDOF 8
ENDMDL
MODEL      342
REMARK 921   NORMALIZED FREE ENERGY PREDICTED BY IDOCK:   -3.13 KCAL/MOL
REMARK 922        TOTAL FREE ENERGY PREDICTED BY IDOCK:   -5.80 KCAL/MOL
REMARK 923 INTER-LIGAND FREE ENERGY PREDICTED BY IDOCK:   -5.00 KCAL/MOL
REMARK 924 INTRA-LIGAND FREE ENERGY PREDICTED BY IDOCK:   -0.80 KCAL/MOL
REMARK 927      BINDING AFFINITY PREDICTED BY RF-SCORE:    0.00 PKD
ROOT
HETATM    1  C   UNL     1      -6.817  19.510  69.160  1.00  0.00    -0.346 C  
HETATM    2  O   UNL     1      -7.237  19.986  67.880  1.00  0.00    -0.275 OA 
ENDROOT
BRANCH   2   3
HETATM    3  C   UNL     1      -8.056  19.121  67.203  1.00  0.00    -0.261 A  
HETATM    4  C   UNL     1      -9.245  19.651  66.699  1.00  0.00    -0.364 A  
HETATM    5  O   UNL     1      -9.549  20.970  66.891  1.00  0.00    -0.671 OA 
HETATM    6  C   UNL     1     -10.165  18.853  66.024  1.00  0.00    -0.437 A  
HETATM    7  C   UNL     1      -9.892  17.496  65.855  1.00  0.00    -0.113 A  
HETATM    8  H   UNL     1     -10.358  21.330  66.548  1.00  0.00     0.000 HD 
HETATM    9  C   UNL     1      -8.696  16.944  66.331  1.00  0.00    -0.321 A  
HETATM   10  C   UNL     1      -7.769  17.774  66.985  1.00  0.00    -0.233 A  
BRANCH   9  11
HETATM   11  C   UNL     1      -8.416  15.468  66.235  1.00  0.00    -0.085 C  
BRANCH  11  12
HETATM   12  N   UNL     1      -9.561  14.682  66.590  1.00  0.00    -0.264 N  
HETATM   13  C   UNL     1      -9.574  13.892  67.715  1.00  0.00    -0.222 C  
HETATM   14  H   UNL     1     -10.387  14.709  65.992  1.00  0.00     0.000 HD 
HETATM   15  O   UNL     1      -8.647  13.801  68.500  1.00  0.00    -0.171 OA 
BRANCH  13  16
HETATM   16  C   UNL     1     -10.836  13.079  67.825  1.00  0.00    -0.257 C  
BRANCH  16  17
HETATM   17  C   UNL     1     -10.583  11.584  67.959  1.00  0.00    -0.222 C  
BRANCH  17  18
HETATM   18  C   UNL     1     -11.326  10.742  66.912  1.00  0.00     0.017 C  
BRANCH  18  19
HETATM   19  C   UNL     1     -10.492  10.283  65.708  1.00  0.00    -0.159 C  
BRANCH  19  20
HETATM   20  C   UNL     1      -9.202  11.036  65.517  1.00  0.00    -0.235 C  
HETATM   21  C   UNL     1      -7.964  10.511  65.543  1.00  0.00    -0.145 C  
HETATM   22  C   UNL     1      -7.617   9.044  65.615  1.00  0.00    -0.086 C  
HETATM   23  C   UNL     1      -7.416   8.581  67.056  1.00  0.00    -0.084 C  
HETATM   24  C   UNL     1      -6.370   8.763  64.780  1.00  0.00    -0.066 C  
ENDBRANCH  19  20
ENDBRANCH  18  19
ENDBRANCH  17  18
ENDBRANCH  16  17
ENDBRANCH  13  16
ENDBRANCH  11  12
ENDBRANCH   9  11
ENDBRANCH   2   3
TORSDOF 8
ENDMDL
MODEL      343
REMARK 921   NORMALIZED FREE ENERGY PREDICTED BY IDOCK:   -3.13 KCAL/MOL
REMARK 922        TOTAL FREE ENERGY PREDICTED BY IDOCK:   -5.80 KCAL/MOL
REMARK 923 INTER-LIGAND FREE ENERGY PREDICTED BY IDOCK:   -5.37 KCAL/MOL
REMARK 924 INTRA-LIGAND FREE ENERGY PREDICTED BY IDOCK:   -0.43 KCAL/MOL
REMARK 927      BINDING AFFINITY PREDICTED BY RF-SCORE:    0.00 PKD
ROOT
HETATM    1  C   UNL     1      -9.966   2.602  64.464  1.00  0.00     0.042 C  
HETATM    2  O   UNL     1      -9.085   2.533  65.587  1.00  0.00    -0.137 OA 
ENDROOT
BRANCH   2   3
HETATM    3  C   UNL     1      -9.409   3.390  66.606  1.00  0.00    -0.159 A  
HETATM    4  C   UNL     1      -9.024   3.008  67.891  1.00  0.00    -0.152 A  
HETATM    5  O   UNL     1      -8.359   1.829  68.091  1.00  0.00    -0.057 OA 
HETATM    6  C   UNL     1      -9.332   3.787  69.003  1.00  0.00    -0.240 A  
HETATM    7  C   UNL     1     -10.046   4.973  68.824  1.00  0.00    -0.200 A  
HETATM    8  H   UNL     1      -8.096   1.569  68.966  1.00  0.00     0.000 HD 
HETATM    9  C   UNL     1     -10.426   5.390  67.543  1.00  0.00    -0.235 A  
HETATM   10  C   UNL     1     -10.080   4.601  66.432  1.00  0.00    -0.289 A  
BRANCH   9  11
HETATM   11  C   UNL     1     -11.269   6.619  67.332  1.00  0.00    -0.213 C  
BRANCH  11  12
HETATM   12  N   UNL     1     -10.572   7.625  66.586  1.00  0.00    -0.478 N  
HETATM   13  C   UNL     1     -10.180   8.810  67.163  1.00  0.00    -0.276 C  
HETATM   14  H   UNL     1     -10.361   7.458  65.603  1.00  0.00     0.000 HD 
HETATM   15  O   UNL     1     -10.370   9.100  68.330  1.00  0.00    -0.195 OA 
BRANCH  13  16
HETATM   16  C   UNL     1      -9.563   9.752  66.164  1.00  0.00    -0.287 C  
BRANCH  16  17
HETATM   17  C   UNL     1      -9.876  11.216  66.440  1.00  0.00    -0.248 C  
BRANCH  17  18
HETATM   18  C   UNL     1     -11.380  11.529  66.444  1.00  0.00    -0.246 C  
BRANCH  18  19
HETATM   19  C   UNL     1     -11.885  12.373  67.622  1.00  0.00    -0.363 C  
BRANCH  19  20
HETATM   20  C   UNL     1     -11.326  11.973  68.962  1.00  0.00    -0.331 C  
HETATM   21  C   UNL     1     -11.608  12.549  70.145  1.00  0.00    -0.150 C  
HETATM   22  C   UNL     1     -12.653  13.608  70.396  1.00  0.00    -0.297 C  
HETATM   23  C   UNL     1     -12.066  15.015  70.299  1.00  0.00    -0.378 C  
HETATM   24  C   UNL     1     -13.301  13.387  71.761  1.00  0.00    -0.479 C  
ENDBRANCH  19  20
ENDBRANCH  18  19
ENDBRANCH  17  18
ENDBRANCH  16  17
ENDBRANCH  13  16
ENDBRANCH  11  12
ENDBRANCH   9  11
ENDBRANCH   2   3
TORSDOF 8
ENDMDL
MODEL      344
REMARK 921   NORMALIZED FREE ENERGY PREDICTED BY IDOCK:   -3.10 KCAL/MOL
REMARK 922        TOTAL FREE ENERGY PREDICTED BY IDOCK:   -5.76 KCAL/MOL
REMARK 923 INTER-LIGAND FREE ENERGY PREDICTED BY IDOCK:   -4.48 KCAL/MOL
REMARK 924 INTRA-LIGAND FREE ENERGY PREDICTED BY IDOCK:   -1.27 KCAL/MOL
REMARK 927      BINDING AFFINITY PREDICTED BY RF-SCORE:    0.00 PKD
ROOT
HETATM    1  C   UNL     1     -11.998   7.796  72.319  1.00  0.00    -0.309 C  
HETATM    2  O   UNL     1     -10.681   8.262  72.619  1.00  0.00    -0.343 OA 
ENDROOT
BRANCH   2   3
HETATM    3  C   UNL     1     -10.030   8.825  71.552  1.00  0.00    -0.300 A  
HETATM    4  C   UNL     1      -8.642   8.922  71.648  1.00  0.00    -0.090 A  
HETATM    5  O   UNL     1      -7.993   8.471  72.764  1.00  0.00    -0.323 OA 
HETATM    6  C   UNL     1      -7.884   9.508  70.636  1.00  0.00    -0.149 A  
HETATM    7  C   UNL     1      -8.532  10.012  69.508  1.00  0.00    -0.186 A  
HETATM    8  H   UNL     1      -7.048   8.537  72.829  1.00  0.00     0.000 HD 
HETATM    9  C   UNL     1      -9.922   9.906  69.377  1.00  0.00    -0.227 A  
HETATM   10  C   UNL     1     -10.664   9.287  70.398  1.00  0.00    -0.300 A  
BRANCH   9  11
HETATM   11  C   UNL     1     -10.653  10.516  68.211  1.00  0.00    -0.206 C  
BRANCH  11  12
HETATM   12  N   UNL     1     -10.323   9.869  66.975  1.00  0.00    -0.235 N  
HETATM   13  C   UNL     1      -9.637  10.523  65.979  1.00  0.00    -0.194 C  
HETATM   14  H   UNL     1     -10.604   8.900  66.832  1.00  0.00     0.000 HD 
HETATM   15  O   UNL     1      -9.244  11.672  66.057  1.00  0.00    -0.217 OA 
BRANCH  13  16
HETATM   16  C   UNL     1      -9.500   9.682  64.738  1.00  0.00    -0.256 C  
BRANCH  16  17
HETATM   17  C   UNL     1      -8.063   9.554  64.251  1.00  0.00    -0.142 C  
BRANCH  17  18
HETATM   18  C   UNL     1      -7.296   8.397  64.908  1.00  0.00    -0.087 C  
BRANCH  18  19
HETATM   19  C   UNL     1      -8.150   7.374  65.667  1.00  0.00    -0.129 C  
BRANCH  19  20
HETATM   20  C   UNL     1      -7.477   6.767  66.869  1.00  0.00    -0.083 C  
HETATM   21  C   UNL     1      -8.065   6.004  67.809  1.00  0.00    -0.109 C  
HETATM   22  C   UNL     1      -9.476   5.472  67.773  1.00  0.00    -0.125 C  
HETATM   23  C   UNL     1     -10.450   6.407  68.488  1.00  0.00    -0.265 C  
HETATM   24  C   UNL     1      -9.522   4.075  68.387  1.00  0.00    -0.211 C  
ENDBRANCH  19  20
ENDBRANCH  18  19
ENDBRANCH  17  18
ENDBRANCH  16  17
ENDBRANCH  13  16
ENDBRANCH  11  12
ENDBRANCH   9  11
ENDBRANCH   2   3
TORSDOF 8
ENDMDL
MODEL      345
REMARK 921   NORMALIZED FREE ENERGY PREDICTED BY IDOCK:   -3.08 KCAL/MOL
REMARK 922        TOTAL FREE ENERGY PREDICTED BY IDOCK:   -5.74 KCAL/MOL
REMARK 923 INTER-LIGAND FREE ENERGY PREDICTED BY IDOCK:   -4.80 KCAL/MOL
REMARK 924 INTRA-LIGAND FREE ENERGY PREDICTED BY IDOCK:   -0.94 KCAL/MOL
REMARK 927      BINDING AFFINITY PREDICTED BY RF-SCORE:    0.00 PKD
ROOT
HETATM    1  C   UNL     1      -9.593   3.846  70.802  1.00  0.00    -0.188 C  
HETATM    2  O   UNL     1     -10.401   4.698  69.987  1.00  0.00    -0.205 OA 
ENDROOT
BRANCH   2   3
HETATM    3  C   UNL     1      -9.968   5.996  69.933  1.00  0.00    -0.176 A  
HETATM    4  C   UNL     1     -10.880   6.976  70.327  1.00  0.00    -0.254 A  
HETATM    5  O   UNL     1     -12.136   6.625  70.738  1.00  0.00    -0.385 OA 
HETATM    6  C   UNL     1     -10.556   8.330  70.279  1.00  0.00    -0.230 A  
HETATM    7  C   UNL     1      -9.294   8.710  69.822  1.00  0.00    -0.165 A  
HETATM    8  H   UNL     1     -12.757   7.292  71.007  1.00  0.00     0.000 HD 
HETATM    9  C   UNL     1      -8.352   7.746  69.443  1.00  0.00    -0.133 A  
HETATM   10  C   UNL     1      -8.692   6.384  69.525  1.00  0.00    -0.133 A  
BRANCH   9  11
HETATM   11  C   UNL     1      -7.016   8.133  68.867  1.00  0.00    -0.062 C  
BRANCH  11  12
HETATM   12  N   UNL     1      -7.147   9.073  67.794  1.00  0.00    -0.078 N  
HETATM   13  C   UNL     1      -6.670  10.358  67.897  1.00  0.00    -0.066 C  
HETATM   14  H   UNL     1      -7.607   8.781  66.931  1.00  0.00     0.000 HD 
HETATM   15  O   UNL     1      -6.095  10.800  68.875  1.00  0.00    -0.040 OA 
BRANCH  13  16
HETATM   16  C   UNL     1      -7.015  11.191  66.692  1.00  0.00    -0.142 C  
BRANCH  16  17
HETATM   17  C   UNL     1      -8.042  10.536  65.779  1.00  0.00    -0.158 C  
BRANCH  17  18
HETATM   18  C   UNL     1      -9.382  11.286  65.729  1.00  0.00    -0.245 C  
BRANCH  18  19
HETATM   19  C   UNL     1     -10.068  11.520  67.082  1.00  0.00    -0.223 C  
BRANCH  19  20
HETATM   20  C   UNL     1     -11.530  11.867  66.989  1.00  0.00    -0.384 C  
HETATM   21  C   UNL     1     -12.048  12.988  66.457  1.00  0.00    -0.410 C  
HETATM   22  C   UNL     1     -11.289  14.056  65.708  1.00  0.00    -0.312 C  
HETATM   23  C   UNL     1     -10.831  15.180  66.635  1.00  0.00    -0.318 C  
HETATM   24  C   UNL     1     -12.150  14.609  64.575  1.00  0.00    -0.490 C  
ENDBRANCH  19  20
ENDBRANCH  18  19
ENDBRANCH  17  18
ENDBRANCH  16  17
ENDBRANCH  13  16
ENDBRANCH  11  12
ENDBRANCH   9  11
ENDBRANCH   2   3
TORSDOF 8
ENDMDL
MODEL      346
REMARK 921   NORMALIZED FREE ENERGY PREDICTED BY IDOCK:   -3.08 KCAL/MOL
REMARK 922        TOTAL FREE ENERGY PREDICTED BY IDOCK:   -5.74 KCAL/MOL
REMARK 923 INTER-LIGAND FREE ENERGY PREDICTED BY IDOCK:   -5.38 KCAL/MOL
REMARK 924 INTRA-LIGAND FREE ENERGY PREDICTED BY IDOCK:   -0.36 KCAL/MOL
REMARK 927      BINDING AFFINITY PREDICTED BY RF-SCORE:    0.00 PKD
ROOT
HETATM    1  C   UNL     1      -8.505   9.172  69.368  1.00  0.00    -0.130 C  
HETATM    2  O   UNL     1      -9.586   8.597  68.631  1.00  0.00    -0.152 OA 
ENDROOT
BRANCH   2   3
HETATM    3  C   UNL     1      -9.690   9.053  67.343  1.00  0.00    -0.168 A  
HETATM    4  C   UNL     1      -9.027   8.313  66.364  1.00  0.00    -0.166 A  
HETATM    5  O   UNL     1      -8.316   7.195  66.705  1.00  0.00    -0.111 OA 
HETATM    6  C   UNL     1      -9.038   8.704  65.027  1.00  0.00     0.023 A  
HETATM    7  C   UNL     1      -9.722   9.865  64.665  1.00  0.00    -0.265 A  
HETATM    8  H   UNL     1      -7.865   6.691  66.038  1.00  0.00     0.000 HD 
HETATM    9  C   UNL     1     -10.414  10.613  65.625  1.00  0.00    -0.235 A  
HETATM   10  C   UNL     1     -10.412  10.184  66.964  1.00  0.00    -0.302 A  
BRANCH   9  11
HETATM   11  C   UNL     1     -11.089  11.913  65.275  1.00  0.00    -0.299 C  
BRANCH  11  12
HETATM   12  N   UNL     1     -10.937  12.891  66.311  1.00  0.00    -0.277 N  
HETATM   13  C   UNL     1     -11.550  14.119  66.240  1.00  0.00    -0.370 C  
HETATM   14  H   UNL     1     -10.358  12.671  67.122  1.00  0.00     0.000 HD 
HETATM   15  O   UNL     1     -12.271  14.474  65.325  1.00  0.00    -0.374 OA 
BRANCH  13  16
HETATM   16  C   UNL     1     -11.161  15.016  67.384  1.00  0.00    -0.337 C  
BRANCH  16  17
HETATM   17  C   UNL     1     -10.715  16.403  66.941  1.00  0.00    -0.202 C  
BRANCH  17  18
HETATM   18  C   UNL     1     -10.474  17.370  68.109  1.00  0.00    -0.389 C  
BRANCH  18  19
HETATM   19  C   UNL     1      -9.027  17.843  68.299  1.00  0.00    -0.277 C  
BRANCH  19  20
HETATM   20  C   UNL     1      -8.891  19.274  68.747  1.00  0.00    -0.387 C  
HETATM   21  C   UNL     1      -7.743  19.965  68.865  1.00  0.00    -0.173 C  
HETATM   22  C   UNL     1      -6.374  19.503  68.430  1.00  0.00    -0.277 C  
HETATM   23  C   UNL     1      -5.619  18.820  69.568  1.00  0.00    -0.227 C  
HETATM   24  C   UNL     1      -5.575  20.684  67.885  1.00  0.00    -0.287 C  
ENDBRANCH  19  20
ENDBRANCH  18  19
ENDBRANCH  17  18
ENDBRANCH  16  17
ENDBRANCH  13  16
ENDBRANCH  11  12
ENDBRANCH   9  11
ENDBRANCH   2   3
TORSDOF 8
ENDMDL
MODEL      347
REMARK 921   NORMALIZED FREE ENERGY PREDICTED BY IDOCK:   -3.07 KCAL/MOL
REMARK 922        TOTAL FREE ENERGY PREDICTED BY IDOCK:   -5.72 KCAL/MOL
REMARK 923 INTER-LIGAND FREE ENERGY PREDICTED BY IDOCK:   -4.57 KCAL/MOL
REMARK 924 INTRA-LIGAND FREE ENERGY PREDICTED BY IDOCK:   -1.15 KCAL/MOL
REMARK 927      BINDING AFFINITY PREDICTED BY RF-SCORE:    0.00 PKD
ROOT
HETATM    1  C   UNL     1     -10.413   7.873  67.494  1.00  0.00    -0.262 C  
HETATM    2  O   UNL     1      -9.872   7.280  66.312  1.00  0.00    -0.101 OA 
ENDROOT
BRANCH   2   3
HETATM    3  C   UNL     1      -9.285   6.059  66.516  1.00  0.00    -0.148 A  
HETATM    4  C   UNL     1     -10.005   4.941  66.098  1.00  0.00    -0.231 A  
HETATM    5  O   UNL     1     -11.235   5.089  65.518  1.00  0.00    -0.808 OA 
HETATM    6  C   UNL     1      -9.517   3.650  66.288  1.00  0.00    -0.177 A  
HETATM    7  C   UNL     1      -8.283   3.477  66.916  1.00  0.00    -0.095 A  
HETATM    8  H   UNL     1     -11.726   4.327  65.233  1.00  0.00     0.000 HD 
HETATM    9  C   UNL     1      -7.529   4.584  67.325  1.00  0.00    -0.078 A  
HETATM   10  C   UNL     1      -8.030   5.878  67.098  1.00  0.00    -0.102 A  
BRANCH   9  11
HETATM   11  C   UNL     1      -6.236   4.422  68.079  1.00  0.00    -0.036 C  
BRANCH  11  12
HETATM   12  N   UNL     1      -6.238   5.157  69.309  1.00  0.00    -0.031 N  
HETATM   13  C   UNL     1      -6.860   4.676  70.437  1.00  0.00    -0.037 C  
HETATM   14  H   UNL     1      -5.765   6.060  69.349  1.00  0.00     0.000 HD 
HETATM   15  O   UNL     1      -7.437   3.606  70.498  1.00  0.00    -0.041 OA 
BRANCH  13  16
HETATM   16  C   UNL     1      -6.823   5.664  71.571  1.00  0.00    -0.066 C  
BRANCH  16  17
HETATM   17  C   UNL     1      -8.199   6.184  71.965  1.00  0.00    -0.110 C  
BRANCH  17  18
HETATM   18  C   UNL     1      -8.299   7.717  71.954  1.00  0.00    -0.125 C  
BRANCH  18  19
HETATM   19  C   UNL     1      -9.473   8.316  72.739  1.00  0.00    -0.343 C  
BRANCH  19  20
HETATM   20  C   UNL     1     -10.449   9.101  71.902  1.00  0.00    -0.280 C  
HETATM   21  C   UNL     1     -11.578   8.628  71.345  1.00  0.00    -0.354 C  
HETATM   22  C   UNL     1     -12.179   7.262  71.566  1.00  0.00    -0.387 C  
HETATM   23  C   UNL     1     -11.709   6.260  70.514  1.00  0.00    -0.289 C  
HETATM   24  C   UNL     1     -13.703   7.359  71.575  1.00  0.00    -0.467 C  
ENDBRANCH  19  20
ENDBRANCH  18  19
ENDBRANCH  17  18
ENDBRANCH  16  17
ENDBRANCH  13  16
ENDBRANCH  11  12
ENDBRANCH   9  11
ENDBRANCH   2   3
TORSDOF 8
ENDMDL
MODEL      348
REMARK 921   NORMALIZED FREE ENERGY PREDICTED BY IDOCK:   -3.06 KCAL/MOL
REMARK 922        TOTAL FREE ENERGY PREDICTED BY IDOCK:   -5.71 KCAL/MOL
REMARK 923 INTER-LIGAND FREE ENERGY PREDICTED BY IDOCK:   -4.52 KCAL/MOL
REMARK 924 INTRA-LIGAND FREE ENERGY PREDICTED BY IDOCK:   -1.19 KCAL/MOL
REMARK 927      BINDING AFFINITY PREDICTED BY RF-SCORE:    0.00 PKD
ROOT
HETATM    1  C   UNL     1     -12.764  12.819  64.784  1.00  0.00    -0.393 C  
HETATM    2  O   UNL     1     -12.439  13.602  65.934  1.00  0.00    -0.453 OA 
ENDROOT
BRANCH   2   3
HETATM    3  C   UNL     1     -11.230  13.293  66.498  1.00  0.00    -0.304 A  
HETATM    4  C   UNL     1     -10.641  14.277  67.293  1.00  0.00    -0.278 A  
HETATM    5  O   UNL     1     -11.265  15.480  67.478  1.00  0.00    -0.322 OA 
HETATM    6  C   UNL     1      -9.397  14.081  67.887  1.00  0.00    -0.206 A  
HETATM    7  C   UNL     1      -8.725  12.877  67.676  1.00  0.00    -0.185 A  
HETATM    8  H   UNL     1     -10.865  16.149  68.019  1.00  0.00     0.000 HD 
HETATM    9  C   UNL     1      -9.304  11.864  66.901  1.00  0.00    -0.198 A  
HETATM   10  C   UNL     1     -10.573  12.073  66.334  1.00  0.00    -0.278 A  
BRANCH   9  11
HETATM   11  C   UNL     1      -8.565  10.590  66.590  1.00  0.00    -0.131 C  
BRANCH  11  12
HETATM   12  N   UNL     1      -8.707   9.620  67.634  1.00  0.00    -0.126 N  
HETATM   13  C   UNL     1      -9.664   8.634  67.579  1.00  0.00    -0.165 C  
HETATM   14  H   UNL     1      -8.081   9.661  68.439  1.00  0.00     0.000 HD 
HETATM   15  O   UNL     1     -10.447   8.490  66.658  1.00  0.00    -0.289 OA 
BRANCH  13  16
HETATM   16  C   UNL     1      -9.695   7.801  68.832  1.00  0.00    -0.160 C  
BRANCH  16  17
HETATM   17  C   UNL     1     -10.571   6.561  68.712  1.00  0.00    -0.282 C  
BRANCH  17  18
HETATM   18  C   UNL     1      -9.849   5.263  69.105  1.00  0.00    -0.257 C  
BRANCH  18  19
HETATM   19  C   UNL     1      -8.326   5.364  69.257  1.00  0.00    -0.096 C  
BRANCH  19  20
HETATM   20  C   UNL     1      -7.547   4.386  68.419  1.00  0.00    -0.064 C  
HETATM   21  C   UNL     1      -7.175   4.557  67.138  1.00  0.00    -0.073 C  
HETATM   22  C   UNL     1      -7.324   5.819  66.325  1.00  0.00    -0.078 C  
HETATM   23  C   UNL     1      -8.630   5.830  65.533  1.00  0.00    -0.151 C  
HETATM   24  C   UNL     1      -6.127   5.983  65.391  1.00  0.00    -0.029 C  
ENDBRANCH  19  20
ENDBRANCH  18  19
ENDBRANCH  17  18
ENDBRANCH  16  17
ENDBRANCH  13  16
ENDBRANCH  11  12
ENDBRANCH   9  11
ENDBRANCH   2   3
TORSDOF 8
ENDMDL
MODEL      349
REMARK 921   NORMALIZED FREE ENERGY PREDICTED BY IDOCK:   -3.04 KCAL/MOL
REMARK 922        TOTAL FREE ENERGY PREDICTED BY IDOCK:   -5.67 KCAL/MOL
REMARK 923 INTER-LIGAND FREE ENERGY PREDICTED BY IDOCK:   -3.83 KCAL/MOL
REMARK 924 INTRA-LIGAND FREE ENERGY PREDICTED BY IDOCK:   -1.84 KCAL/MOL
REMARK 927      BINDING AFFINITY PREDICTED BY RF-SCORE:    0.00 PKD
ROOT
HETATM    1  C   UNL     1      -7.364   8.733  71.144  1.00  0.00    -0.097 C  
HETATM    2  O   UNL     1      -8.792   8.693  71.142  1.00  0.00    -0.162 OA 
ENDROOT
BRANCH   2   3
HETATM    3  C   UNL     1      -9.328   7.866  70.190  1.00  0.00    -0.156 A  
HETATM    4  C   UNL     1     -10.609   7.372  70.440  1.00  0.00    -0.228 A  
HETATM    5  O   UNL     1     -11.268   7.714  71.588  1.00  0.00    -0.241 OA 
HETATM    6  C   UNL     1     -11.234   6.497  69.556  1.00  0.00    -0.434 A  
HETATM    7  C   UNL     1     -10.560   6.103  68.399  1.00  0.00    -0.324 A  
HETATM    8  H   UNL     1     -12.141   7.379  71.758  1.00  0.00     0.000 HD 
HETATM    9  C   UNL     1      -9.283   6.601  68.114  1.00  0.00    -0.117 A  
HETATM   10  C   UNL     1      -8.682   7.505  69.007  1.00  0.00    -0.136 A  
BRANCH   9  11
HETATM   11  C   UNL     1      -8.501   6.127  66.918  1.00  0.00    -0.105 C  
BRANCH  11  12
HETATM   12  N   UNL     1      -7.705   7.174  66.349  1.00  0.00    -0.098 N  
HETATM   13  C   UNL     1      -7.520   7.284  64.991  1.00  0.00    -0.089 C  
HETATM   14  H   UNL     1      -7.265   7.855  66.967  1.00  0.00     0.000 HD 
HETATM   15  O   UNL     1      -8.013   6.534  64.169  1.00  0.00    -0.115 OA 
BRANCH  13  16
HETATM   16  C   UNL     1      -6.564   8.391  64.635  1.00  0.00    -0.065 C  
BRANCH  16  17
HETATM   17  C   UNL     1      -7.066   9.773  65.030  1.00  0.00    -0.120 C  
BRANCH  17  18
HETATM   18  C   UNL     1      -6.214  10.444  66.119  1.00  0.00    -0.101 C  
BRANCH  18  19
HETATM   19  C   UNL     1      -6.947  10.795  67.420  1.00  0.00    -0.083 C  
BRANCH  19  20
HETATM   20  C   UNL     1      -8.012  11.850  67.272  1.00  0.00    -0.171 C  
HETATM   21  C   UNL     1      -9.341  11.641  67.259  1.00  0.00    -0.170 C  
HETATM   22  C   UNL     1     -10.043  10.336  67.542  1.00  0.00    -0.239 C  
HETATM   23  C   UNL     1     -10.306   9.546  66.261  1.00  0.00    -0.226 C  
HETATM   24  C   UNL     1     -11.348  10.599  68.290  1.00  0.00    -0.357 C  
ENDBRANCH  19  20
ENDBRANCH  18  19
ENDBRANCH  17  18
ENDBRANCH  16  17
ENDBRANCH  13  16
ENDBRANCH  11  12
ENDBRANCH   9  11
ENDBRANCH   2   3
TORSDOF 8
ENDMDL
MODEL      350
REMARK 921   NORMALIZED FREE ENERGY PREDICTED BY IDOCK:   -3.01 KCAL/MOL
REMARK 922        TOTAL FREE ENERGY PREDICTED BY IDOCK:   -5.63 KCAL/MOL
REMARK 923 INTER-LIGAND FREE ENERGY PREDICTED BY IDOCK:   -4.00 KCAL/MOL
REMARK 924 INTRA-LIGAND FREE ENERGY PREDICTED BY IDOCK:   -1.63 KCAL/MOL
REMARK 927      BINDING AFFINITY PREDICTED BY RF-SCORE:    0.00 PKD
ROOT
HETATM    1  C   UNL     1      -9.151   4.304  65.066  1.00  0.00    -0.146 C  
HETATM    2  O   UNL     1      -8.447   5.079  66.039  1.00  0.00    -0.113 OA 
ENDROOT
BRANCH   2   3
HETATM    3  C   UNL     1      -8.881   6.374  66.143  1.00  0.00    -0.150 A  
HETATM    4  C   UNL     1      -8.346   7.288  65.234  1.00  0.00    -0.104 A  
HETATM    5  O   UNL     1      -7.435   6.879  64.300  1.00  0.00    -0.085 OA 
HETATM    6  C   UNL     1      -8.692   8.636  65.273  1.00  0.00    -0.200 A  
HETATM    7  C   UNL     1      -9.588   9.080  66.246  1.00  0.00    -0.327 A  
HETATM    8  H   UNL     1      -7.072   7.501  63.681  1.00  0.00     0.000 HD 
HETATM    9  C   UNL     1     -10.156   8.180  67.156  1.00  0.00    -0.334 A  
HETATM   10  C   UNL     1      -9.814   6.818  67.081  1.00  0.00    -0.207 A  
BRANCH   9  11
HETATM   11  C   UNL     1     -11.059   8.646  68.266  1.00  0.00     0.345 C  
BRANCH  11  12
HETATM   12  N   UNL     1     -11.363  10.042  68.159  1.00  0.00    -0.530 N  
HETATM   13  C   UNL     1     -11.412  10.858  69.265  1.00  0.00    -0.302 C  
HETATM   14  H   UNL     1     -11.547  10.441  67.238  1.00  0.00     0.000 HD 
HETATM   15  O   UNL     1     -11.194  10.484  70.403  1.00  0.00    -0.304 OA 
BRANCH  13  16
HETATM   16  C   UNL     1     -11.854  12.255  68.921  1.00  0.00    -0.355 C  
BRANCH  16  17
HETATM   17  C   UNL     1     -10.697  13.233  68.765  1.00  0.00    -0.253 C  
BRANCH  17  18
HETATM   18  C   UNL     1     -10.232  13.401  67.311  1.00  0.00    -0.241 C  
BRANCH  18  19
HETATM   19  C   UNL     1      -9.042  12.530  66.884  1.00  0.00    -0.213 C  
BRANCH  19  20
HETATM   20  C   UNL     1      -7.737  12.888  67.544  1.00  0.00    -0.174 C  
HETATM   21  C   UNL     1      -6.899  12.037  68.163  1.00  0.00    -0.069 C  
HETATM   22  C   UNL     1      -7.015  10.533  68.193  1.00  0.00    -0.073 C  
HETATM   23  C   UNL     1      -7.782  10.050  69.422  1.00  0.00    -0.129 C  
HETATM   24  C   UNL     1      -5.625   9.903  68.142  1.00  0.00    -0.039 C  
ENDBRANCH  19  20
ENDBRANCH  18  19
ENDBRANCH  17  18
ENDBRANCH  16  17
ENDBRANCH  13  16
ENDBRANCH  11  12
ENDBRANCH   9  11
ENDBRANCH   2   3
TORSDOF 8
ENDMDL
MODEL      351
REMARK 921   NORMALIZED FREE ENERGY PREDICTED BY IDOCK:   -3.00 KCAL/MOL
REMARK 922        TOTAL FREE ENERGY PREDICTED BY IDOCK:   -5.62 KCAL/MOL
REMARK 923 INTER-LIGAND FREE ENERGY PREDICTED BY IDOCK:   -4.85 KCAL/MOL
REMARK 924 INTRA-LIGAND FREE ENERGY PREDICTED BY IDOCK:   -0.77 KCAL/MOL
REMARK 927      BINDING AFFINITY PREDICTED BY RF-SCORE:    0.00 PKD
ROOT
HETATM    1  C   UNL     1      -9.938  19.539  66.357  1.00  0.00    -0.438 C  
HETATM    2  O   UNL     1      -8.685  19.504  65.672  1.00  0.00    -0.336 OA 
ENDROOT
BRANCH   2   3
HETATM    3  C   UNL     1      -7.740  18.716  66.273  1.00  0.00    -0.264 A  
HETATM    4  C   UNL     1      -6.550  18.520  65.571  1.00  0.00    -0.264 A  
HETATM    5  O   UNL     1      -6.369  19.099  64.345  1.00  0.00    -0.460 OA 
HETATM    6  C   UNL     1      -5.535  17.710  66.073  1.00  0.00    -0.221 A  
HETATM    7  C   UNL     1      -5.719  17.077  67.304  1.00  0.00    -0.180 A  
HETATM    8  H   UNL     1      -5.559  18.966  63.867  1.00  0.00     0.000 HD 
HETATM    9  C   UNL     1      -6.894  17.275  68.039  1.00  0.00    -0.178 A  
HETATM   10  C   UNL     1      -7.893  18.119  67.524  1.00  0.00    -0.223 A  
BRANCH   9  11
HETATM   11  C   UNL     1      -7.151  16.539  69.327  1.00  0.00    -0.219 C  
BRANCH  11  12
HETATM   12  N   UNL     1      -7.342  15.135  69.112  1.00  0.00    -0.151 N  
HETATM   13  C   UNL     1      -6.484  14.200  69.641  1.00  0.00    -0.134 C  
HETATM   14  H   UNL     1      -8.135  14.821  68.553  1.00  0.00     0.000 HD 
HETATM   15  O   UNL     1      -5.519  14.468  70.333  1.00  0.00    -0.103 OA 
BRANCH  13  16
HETATM   16  C   UNL     1      -6.822  12.802  69.195  1.00  0.00    -0.054 C  
BRANCH  16  17
HETATM   17  C   UNL     1      -7.324  12.730  67.760  1.00  0.00    -0.130 C  
BRANCH  17  18
HETATM   18  C   UNL     1      -8.739  12.145  67.636  1.00  0.00    -0.172 C  
BRANCH  18  19
HETATM   19  C   UNL     1      -9.192  11.786  66.215  1.00  0.00    -0.227 C  
BRANCH  19  20
HETATM   20  C   UNL     1     -10.383  10.867  66.153  1.00  0.00    -0.305 C  
HETATM   21  C   UNL     1     -10.361   9.528  66.274  1.00  0.00    -0.226 C  
HETATM   22  C   UNL     1      -9.168   8.684  66.649  1.00  0.00    -0.227 C  
HETATM   23  C   UNL     1      -8.415   8.189  65.416  1.00  0.00    -0.164 C  
HETATM   24  C   UNL     1      -9.612   7.509  67.517  1.00  0.00    -0.175 C  
ENDBRANCH  19  20
ENDBRANCH  18  19
ENDBRANCH  17  18
ENDBRANCH  16  17
ENDBRANCH  13  16
ENDBRANCH  11  12
ENDBRANCH   9  11
ENDBRANCH   2   3
TORSDOF 8
ENDMDL
MODEL      352
REMARK 921   NORMALIZED FREE ENERGY PREDICTED BY IDOCK:   -3.00 KCAL/MOL
REMARK 922        TOTAL FREE ENERGY PREDICTED BY IDOCK:   -5.62 KCAL/MOL
REMARK 923 INTER-LIGAND FREE ENERGY PREDICTED BY IDOCK:   -4.98 KCAL/MOL
REMARK 924 INTRA-LIGAND FREE ENERGY PREDICTED BY IDOCK:   -0.65 KCAL/MOL
REMARK 927      BINDING AFFINITY PREDICTED BY RF-SCORE:    0.00 PKD
ROOT
HETATM    1  C   UNL     1      -9.804   6.585  72.523  1.00  0.00    -0.165 C  
HETATM    2  O   UNL     1      -9.826   7.977  72.841  1.00  0.00    -0.253 OA 
ENDROOT
BRANCH   2   3
HETATM    3  C   UNL     1      -9.927   8.799  71.749  1.00  0.00    -0.326 A  
HETATM    4  C   UNL     1     -11.185   9.342  71.490  1.00  0.00    -0.386 A  
HETATM    5  O   UNL     1     -12.245   9.047  72.302  1.00  0.00    -0.361 OA 
HETATM    6  C   UNL     1     -11.408  10.163  70.387  1.00  0.00    -0.401 A  
HETATM    7  C   UNL     1     -10.349  10.441  69.523  1.00  0.00    -0.264 A  
HETATM    8  H   UNL     1     -13.102   9.418  72.126  1.00  0.00     0.000 HD 
HETATM    9  C   UNL     1      -9.070   9.927  69.773  1.00  0.00    -0.249 A  
HETATM   10  C   UNL     1      -8.863   9.123  70.907  1.00  0.00    -0.292 A  
BRANCH   9  11
HETATM   11  C   UNL     1      -7.932  10.143  68.811  1.00  0.00    -0.104 C  
BRANCH  11  12
HETATM   12  N   UNL     1      -7.250  11.379  69.058  1.00  0.00    -0.117 N  
HETATM   13  C   UNL     1      -6.124  11.735  68.354  1.00  0.00    -0.049 C  
HETATM   14  H   UNL     1      -7.610  12.010  69.774  1.00  0.00     0.000 HD 
HETATM   15  O   UNL     1      -5.625  11.060  67.472  1.00  0.00    -0.043 OA 
BRANCH  13  16
HETATM   16  C   UNL     1      -5.522  13.019  68.858  1.00  0.00    -0.071 C  
BRANCH  16  17
HETATM   17  C   UNL     1      -5.472  14.117  67.804  1.00  0.00    -0.028 C  
BRANCH  17  18
HETATM   18  C   UNL     1      -6.562  15.184  67.981  1.00  0.00    -0.156 C  
BRANCH  18  19
HETATM   19  C   UNL     1      -7.720  15.131  66.975  1.00  0.00    -0.158 C  
BRANCH  19  20
HETATM   20  C   UNL     1      -8.948  15.894  67.395  1.00  0.00    -0.203 C  
HETATM   21  C   UNL     1     -10.209  15.651  66.997  1.00  0.00    -0.274 C  
HETATM   22  C   UNL     1     -10.675  14.476  66.172  1.00  0.00    -0.310 C  
HETATM   23  C   UNL     1     -10.687  14.801  64.680  1.00  0.00    -0.279 C  
HETATM   24  C   UNL     1     -12.060  14.030  66.637  1.00  0.00    -0.487 C  
ENDBRANCH  19  20
ENDBRANCH  18  19
ENDBRANCH  17  18
ENDBRANCH  16  17
ENDBRANCH  13  16
ENDBRANCH  11  12
ENDBRANCH   9  11
ENDBRANCH   2   3
TORSDOF 8
ENDMDL
MODEL      353
REMARK 921   NORMALIZED FREE ENERGY PREDICTED BY IDOCK:   -2.98 KCAL/MOL
REMARK 922        TOTAL FREE ENERGY PREDICTED BY IDOCK:   -5.58 KCAL/MOL
REMARK 923 INTER-LIGAND FREE ENERGY PREDICTED BY IDOCK:   -4.05 KCAL/MOL
REMARK 924 INTRA-LIGAND FREE ENERGY PREDICTED BY IDOCK:   -1.54 KCAL/MOL
REMARK 927      BINDING AFFINITY PREDICTED BY RF-SCORE:    0.00 PKD
ROOT
HETATM    1  C   UNL     1      -9.380   6.656  66.605  1.00  0.00    -0.163 C  
HETATM    2  O   UNL     1     -10.405   7.623  66.366  1.00  0.00    -0.135 OA 
ENDROOT
BRANCH   2   3
HETATM    3  C   UNL     1     -10.315   8.741  67.153  1.00  0.00    -0.293 A  
HETATM    4  C   UNL     1     -10.274   9.969  66.493  1.00  0.00    -0.224 A  
HETATM    5  O   UNL     1     -10.321  10.020  65.127  1.00  0.00    -0.219 OA 
HETATM    6  C   UNL     1     -10.149  11.166  67.194  1.00  0.00    -0.223 A  
HETATM    7  C   UNL     1     -10.057  11.131  68.586  1.00  0.00    -0.208 A  
HETATM    8  H   UNL     1     -10.294  10.857  64.677  1.00  0.00     0.000 HD 
HETATM    9  C   UNL     1     -10.118   9.913  69.274  1.00  0.00    -0.214 A  
HETATM   10  C   UNL     1     -10.272   8.720  68.547  1.00  0.00    -0.220 A  
BRANCH   9  11
HETATM   11  C   UNL     1      -9.937   9.842  70.767  1.00  0.00    -0.081 C  
BRANCH  11  12
HETATM   12  N   UNL     1     -10.729   8.801  71.353  1.00  0.00    -0.260 N  
HETATM   13  C   UNL     1     -10.321   8.135  72.485  1.00  0.00    -0.330 C  
HETATM   14  H   UNL     1     -11.617   8.549  70.920  1.00  0.00     0.000 HD 
HETATM   15  O   UNL     1      -9.289   8.370  73.085  1.00  0.00    -0.237 OA 
BRANCH  13  16
HETATM   16  C   UNL     1     -11.258   7.016  72.853  1.00  0.00    -0.273 C  
BRANCH  16  17
HETATM   17  C   UNL     1     -11.008   5.735  72.069  1.00  0.00    -0.317 C  
BRANCH  17  18
HETATM   18  C   UNL     1      -9.804   4.930  72.581  1.00  0.00    -0.200 C  
BRANCH  18  19
HETATM   19  C   UNL     1      -8.670   4.708  71.572  1.00  0.00    -0.137 C  
BRANCH  19  20
HETATM   20  C   UNL     1      -7.324   5.211  72.023  1.00  0.00    -0.090 C  
HETATM   21  C   UNL     1      -6.645   6.247  71.498  1.00  0.00    -0.054 C  
HETATM   22  C   UNL     1      -7.154   7.211  70.455  1.00  0.00    -0.063 C  
HETATM   23  C   UNL     1      -6.784   6.764  69.043  1.00  0.00    -0.059 C  
HETATM   24  C   UNL     1      -6.615   8.613  70.735  1.00  0.00    -0.045 C  
ENDBRANCH  19  20
ENDBRANCH  18  19
ENDBRANCH  17  18
ENDBRANCH  16  17
ENDBRANCH  13  16
ENDBRANCH  11  12
ENDBRANCH   9  11
ENDBRANCH   2   3
TORSDOF 8
ENDMDL
MODEL      354
REMARK 921   NORMALIZED FREE ENERGY PREDICTED BY IDOCK:   -2.96 KCAL/MOL
REMARK 922        TOTAL FREE ENERGY PREDICTED BY IDOCK:   -5.57 KCAL/MOL
REMARK 923 INTER-LIGAND FREE ENERGY PREDICTED BY IDOCK:   -5.08 KCAL/MOL
REMARK 924 INTRA-LIGAND FREE ENERGY PREDICTED BY IDOCK:   -0.49 KCAL/MOL
REMARK 927      BINDING AFFINITY PREDICTED BY RF-SCORE:    0.00 PKD
ROOT
HETATM    1  C   UNL     1     -10.395  11.938  63.515  1.00  0.00    -0.458 C  
HETATM    2  O   UNL     1     -10.171  10.548  63.756  1.00  0.00    -0.281 OA 
ENDROOT
BRANCH   2   3
HETATM    3  C   UNL     1      -9.366  10.289  64.835  1.00  0.00    -0.252 A  
HETATM    4  C   UNL     1      -8.628   9.106  64.795  1.00  0.00    -0.184 A  
HETATM    5  O   UNL     1      -8.727   8.267  63.720  1.00  0.00    -0.401 OA 
HETATM    6  C   UNL     1      -7.805   8.729  65.853  1.00  0.00    -0.102 A  
HETATM    7  C   UNL     1      -7.723   9.551  66.977  1.00  0.00    -0.091 A  
HETATM    8  H   UNL     1      -8.224   7.462  63.692  1.00  0.00     0.000 HD 
HETATM    9  C   UNL     1      -8.437  10.755  67.033  1.00  0.00    -0.128 A  
HETATM   10  C   UNL     1      -9.240  11.129  65.942  1.00  0.00    -0.225 A  
BRANCH   9  11
HETATM   11  C   UNL     1      -8.432  11.617  68.267  1.00  0.00    -0.160 C  
BRANCH  11  12
HETATM   12  N   UNL     1      -7.991  12.952  67.986  1.00  0.00    -0.145 N  
HETATM   13  C   UNL     1      -8.788  14.044  68.240  1.00  0.00    -0.184 C  
HETATM   14  H   UNL     1      -7.063  13.095  67.587  1.00  0.00     0.000 HD 
HETATM   15  O   UNL     1      -9.901  13.981  68.726  1.00  0.00    -0.213 OA 
BRANCH  13  16
HETATM   16  C   UNL     1      -8.160  15.327  67.766  1.00  0.00    -0.158 C  
BRANCH  16  17
HETATM   17  C   UNL     1      -8.040  16.380  68.859  1.00  0.00    -0.236 C  
BRANCH  17  18
HETATM   18  C   UNL     1      -8.860  17.648  68.577  1.00  0.00    -0.285 C  
BRANCH  18  19
HETATM   19  C   UNL     1     -10.230  17.428  67.921  1.00  0.00    -0.348 C  
BRANCH  19  20
HETATM   20  C   UNL     1     -10.323  17.901  66.495  1.00  0.00    -0.362 C  
HETATM   21  C   UNL     1     -10.637  17.147  65.426  1.00  0.00    -0.116 C  
HETATM   22  C   UNL     1     -11.109  15.714  65.451  1.00  0.00    -0.271 C  
HETATM   23  C   UNL     1      -9.947  14.734  65.305  1.00  0.00    -0.331 C  
HETATM   24  C   UNL     1     -12.146  15.487  64.353  1.00  0.00    -0.146 C  
ENDBRANCH  19  20
ENDBRANCH  18  19
ENDBRANCH  17  18
ENDBRANCH  16  17
ENDBRANCH  13  16
ENDBRANCH  11  12
ENDBRANCH   9  11
ENDBRANCH   2   3
TORSDOF 8
ENDMDL
MODEL      355
REMARK 921   NORMALIZED FREE ENERGY PREDICTED BY IDOCK:   -2.93 KCAL/MOL
REMARK 922        TOTAL FREE ENERGY PREDICTED BY IDOCK:   -5.52 KCAL/MOL
REMARK 923 INTER-LIGAND FREE ENERGY PREDICTED BY IDOCK:   -4.69 KCAL/MOL
REMARK 924 INTRA-LIGAND FREE ENERGY PREDICTED BY IDOCK:   -0.83 KCAL/MOL
REMARK 927      BINDING AFFINITY PREDICTED BY RF-SCORE:    0.00 PKD
ROOT
HETATM    1  C   UNL     1      -6.237  14.809  72.553  1.00  0.00     0.939 C  
HETATM    2  O   UNL     1      -5.266  14.586  71.530  1.00  0.00    -0.136 OA 
ENDROOT
BRANCH   2   3
HETATM    3  C   UNL     1      -5.736  14.783  70.259  1.00  0.00    -0.139 A  
HETATM    4  C   UNL     1      -6.304  13.679  69.624  1.00  0.00    -0.110 A  
HETATM    5  O   UNL     1      -6.370  12.472  70.265  1.00  0.00    -0.361 OA 
HETATM    6  C   UNL     1      -6.783  13.759  68.318  1.00  0.00    -0.109 A  
HETATM    7  C   UNL     1      -6.685  14.970  67.633  1.00  0.00    -0.201 A  
HETATM    8  H   UNL     1      -6.757  11.720  69.833  1.00  0.00     0.000 HD 
HETATM    9  C   UNL     1      -6.140  16.100  68.255  1.00  0.00    -0.112 A  
HETATM   10  C   UNL     1      -5.688  16.003  69.582  1.00  0.00    -0.140 A  
BRANCH   9  11
HETATM   11  C   UNL     1      -5.947  17.393  67.510  1.00  0.00    -0.143 C  
BRANCH  11  12
HETATM   12  N   UNL     1      -7.053  18.286  67.691  1.00  0.00    -0.200 N  
HETATM   13  C   UNL     1      -8.057  18.391  66.756  1.00  0.00    -0.251 C  
HETATM   14  H   UNL     1      -7.098  18.857  68.535  1.00  0.00     0.000 HD 
HETATM   15  O   UNL     1      -8.105  17.745  65.726  1.00  0.00    -0.541 OA 
BRANCH  13  16
HETATM   16  C   UNL     1      -9.051  19.465  67.109  1.00  0.00    -0.359 C  
BRANCH  16  17
HETATM   17  C   UNL     1     -10.341  18.921  67.706  1.00  0.00    -0.490 C  
BRANCH  17  18
HETATM   18  C   UNL     1     -10.623  17.460  67.323  1.00  0.00    -0.284 C  
BRANCH  18  19
HETATM   19  C   UNL     1     -10.886  16.501  68.492  1.00  0.00    -0.349 C  
BRANCH  19  20
HETATM   20  C   UNL     1     -10.200  15.166  68.371  1.00  0.00    -0.221 C  
HETATM   21  C   UNL     1     -10.321  14.300  67.349  1.00  0.00    -0.259 C  
HETATM   22  C   UNL     1     -11.043  14.549  66.048  1.00  0.00    -0.329 C  
HETATM   23  C   UNL     1     -12.493  14.072  66.105  1.00  0.00    -0.467 C  
HETATM   24  C   UNL     1     -10.297  13.871  64.900  1.00  0.00    -0.430 C  
ENDBRANCH  19  20
ENDBRANCH  18  19
ENDBRANCH  17  18
ENDBRANCH  16  17
ENDBRANCH  13  16
ENDBRANCH  11  12
ENDBRANCH   9  11
ENDBRANCH   2   3
TORSDOF 8
ENDMDL
MODEL      356
REMARK 921   NORMALIZED FREE ENERGY PREDICTED BY IDOCK:   -2.90 KCAL/MOL
REMARK 922        TOTAL FREE ENERGY PREDICTED BY IDOCK:   -5.48 KCAL/MOL
REMARK 923 INTER-LIGAND FREE ENERGY PREDICTED BY IDOCK:   -4.45 KCAL/MOL
REMARK 924 INTRA-LIGAND FREE ENERGY PREDICTED BY IDOCK:   -1.03 KCAL/MOL
REMARK 927      BINDING AFFINITY PREDICTED BY RF-SCORE:    0.00 PKD
ROOT
HETATM    1  C   UNL     1      -5.866  14.151  70.799  1.00  0.00    -0.203 C  
HETATM    2  O   UNL     1      -5.303  12.913  71.237  1.00  0.00    -0.182 OA 
ENDROOT
BRANCH   2   3
HETATM    3  C   UNL     1      -5.424  11.891  70.333  1.00  0.00    -0.142 A  
HETATM    4  C   UNL     1      -5.567  10.606  70.857  1.00  0.00    -0.098 A  
HETATM    5  O   UNL     1      -5.579  10.410  72.211  1.00  0.00    -0.303 OA 
HETATM    6  C   UNL     1      -5.665   9.491  70.029  1.00  0.00    -0.036 A  
HETATM    7  C   UNL     1      -5.612   9.667  68.645  1.00  0.00    -0.036 A  
HETATM    8  H   UNL     1      -5.677   9.535  72.567  1.00  0.00     0.000 HD 
HETATM    9  C   UNL     1      -5.492  10.948  68.093  1.00  0.00    -0.039 A  
HETATM   10  C   UNL     1      -5.423  12.061  68.948  1.00  0.00    -0.050 A  
BRANCH   9  11
HETATM   11  C   UNL     1      -5.348  11.156  66.609  1.00  0.00    -0.106 C  
BRANCH  11  12
HETATM   12  N   UNL     1      -6.383  10.492  65.873  1.00  0.00    -0.119 N  
HETATM   13  C   UNL     1      -6.293  10.299  64.514  1.00  0.00    -0.103 C  
HETATM   14  H   UNL     1      -7.207  10.154  66.369  1.00  0.00     0.000 HD 
HETATM   15  O   UNL     1      -5.347  10.651  63.833  1.00  0.00    -0.157 OA 
BRANCH  13  16
HETATM   16  C   UNL     1      -7.540   9.679  63.944  1.00  0.00    -0.127 C  
BRANCH  16  17
HETATM   17  C   UNL     1      -8.380   8.948  64.983  1.00  0.00    -0.174 C  
BRANCH  17  18
HETATM   18  C   UNL     1      -9.785   9.543  65.159  1.00  0.00    -0.207 C  
BRANCH  18  19
HETATM   19  C   UNL     1      -9.940  10.570  66.289  1.00  0.00    -0.276 C  
BRANCH  19  20
HETATM   20  C   UNL     1      -9.644  11.991  65.888  1.00  0.00    -0.238 C  
HETATM   21  C   UNL     1     -10.491  12.836  65.274  1.00  0.00    -0.312 C  
HETATM   22  C   UNL     1     -11.954  12.592  64.999  1.00  0.00    -0.467 C  
HETATM   23  C   UNL     1     -12.176  11.990  63.613  1.00  0.00    -0.642 C  
HETATM   24  C   UNL     1     -12.737  13.894  65.154  1.00  0.00    -0.434 C  
ENDBRANCH  19  20
ENDBRANCH  18  19
ENDBRANCH  17  18
ENDBRANCH  16  17
ENDBRANCH  13  16
ENDBRANCH  11  12
ENDBRANCH   9  11
ENDBRANCH   2   3
TORSDOF 8
ENDMDL
MODEL      357
REMARK 921   NORMALIZED FREE ENERGY PREDICTED BY IDOCK:   -2.89 KCAL/MOL
REMARK 922        TOTAL FREE ENERGY PREDICTED BY IDOCK:   -5.46 KCAL/MOL
REMARK 923 INTER-LIGAND FREE ENERGY PREDICTED BY IDOCK:   -5.05 KCAL/MOL
REMARK 924 INTRA-LIGAND FREE ENERGY PREDICTED BY IDOCK:   -0.41 KCAL/MOL
REMARK 927      BINDING AFFINITY PREDICTED BY RF-SCORE:    0.00 PKD
ROOT
HETATM    1  C   UNL     1      -8.680   6.515  68.097  1.00  0.00    -0.117 C  
HETATM    2  O   UNL     1      -7.803   6.452  69.224  1.00  0.00    -0.102 OA 
ENDROOT
BRANCH   2   3
HETATM    3  C   UNL     1      -8.441   6.254  70.420  1.00  0.00    -0.134 A  
HETATM    4  C   UNL     1      -7.644   5.867  71.497  1.00  0.00    -0.099 A  
HETATM    5  O   UNL     1      -6.296   5.700  71.334  1.00  0.00    -0.039 OA 
HETATM    6  C   UNL     1      -8.193   5.606  72.750  1.00  0.00    -0.112 A  
HETATM    7  C   UNL     1      -9.572   5.730  72.925  1.00  0.00    -0.163 A  
HETATM    8  H   UNL     1      -5.753   5.437  72.068  1.00  0.00     0.000 HD 
HETATM    9  C   UNL     1     -10.392   6.138  71.866  1.00  0.00    -0.244 A  
HETATM   10  C   UNL     1      -9.811   6.423  70.618  1.00  0.00    -0.206 A  
BRANCH   9  11
HETATM   11  C   UNL     1     -11.890   6.198  72.007  1.00  0.00    -0.280 C  
BRANCH  11  12
HETATM   12  N   UNL     1     -12.336   7.489  72.439  1.00  0.00    -0.519 N  
HETATM   13  C   UNL     1     -12.592   8.502  71.544  1.00  0.00    -0.316 C  
HETATM   14  H   UNL     1     -12.467   7.662  73.435  1.00  0.00     0.000 HD 
HETATM   15  O   UNL     1     -12.481   8.393  70.337  1.00  0.00     0.285 OA 
BRANCH  13  16
HETATM   16  C   UNL     1     -12.943   9.793  72.232  1.00  0.00    -0.420 C  
BRANCH  16  17
HETATM   17  C   UNL     1     -13.035  10.979  71.282  1.00  0.00    -0.472 C  
BRANCH  17  18
HETATM   18  C   UNL     1     -11.677  11.407  70.706  1.00  0.00    -0.068 C  
BRANCH  18  19
HETATM   19  C   UNL     1     -11.637  11.644  69.190  1.00  0.00    -0.378 C  
BRANCH  19  20
HETATM   20  C   UNL     1     -10.777  12.803  68.761  1.00  0.00    -0.246 C  
HETATM   21  C   UNL     1     -10.771  13.381  67.547  1.00  0.00    -0.263 C  
HETATM   22  C   UNL     1     -11.727  13.093  66.415  1.00  0.00    -0.429 C  
HETATM   23  C   UNL     1     -11.181  12.024  65.472  1.00  0.00    -0.372 C  
HETATM   24  C   UNL     1     -12.033  14.380  65.652  1.00  0.00    -0.356 C  
ENDBRANCH  19  20
ENDBRANCH  18  19
ENDBRANCH  17  18
ENDBRANCH  16  17
ENDBRANCH  13  16
ENDBRANCH  11  12
ENDBRANCH   9  11
ENDBRANCH   2   3
TORSDOF 8
ENDMDL
MODEL      358
REMARK 921   NORMALIZED FREE ENERGY PREDICTED BY IDOCK:   -2.89 KCAL/MOL
REMARK 922        TOTAL FREE ENERGY PREDICTED BY IDOCK:   -5.45 KCAL/MOL
REMARK 923 INTER-LIGAND FREE ENERGY PREDICTED BY IDOCK:   -3.52 KCAL/MOL
REMARK 924 INTRA-LIGAND FREE ENERGY PREDICTED BY IDOCK:   -1.94 KCAL/MOL
REMARK 927      BINDING AFFINITY PREDICTED BY RF-SCORE:    0.00 PKD
ROOT
HETATM    1  C   UNL     1      -6.669   8.959  71.194  1.00  0.00    -0.081 C  
HETATM    2  O   UNL     1      -7.831   8.846  72.017  1.00  0.00    -0.338 OA 
ENDROOT
BRANCH   2   3
HETATM    3  C   UNL     1      -8.947   8.410  71.352  1.00  0.00    -0.186 A  
HETATM    4  C   UNL     1      -9.941   7.810  72.126  1.00  0.00    -0.193 A  
HETATM    5  O   UNL     1      -9.777   7.675  73.477  1.00  0.00    -0.281 OA 
HETATM    6  C   UNL     1     -11.102   7.301  71.548  1.00  0.00    -0.264 A  
HETATM    7  C   UNL     1     -11.268   7.392  70.166  1.00  0.00    -0.239 A  
HETATM    8  H   UNL     1     -10.454   7.266  74.003  1.00  0.00     0.000 HD 
HETATM    9  C   UNL     1     -10.296   8.010  69.370  1.00  0.00    -0.217 A  
HETATM   10  C   UNL     1      -9.146   8.540  69.978  1.00  0.00    -0.147 A  
BRANCH   9  11
HETATM   11  C   UNL     1     -10.413   8.045  67.869  1.00  0.00    -0.197 C  
BRANCH  11  12
HETATM   12  N   UNL     1     -10.005   6.809  67.271  1.00  0.00    -0.145 N  
HETATM   13  C   UNL     1      -8.828   6.699  66.570  1.00  0.00    -0.139 C  
HETATM   14  H   UNL     1     -10.604   5.988  67.369  1.00  0.00     0.000 HD 
HETATM   15  O   UNL     1      -8.038   7.612  66.409  1.00  0.00    -0.106 OA 
BRANCH  13  16
HETATM   16  C   UNL     1      -8.662   5.340  65.945  1.00  0.00    -0.138 C  
BRANCH  16  17
HETATM   17  C   UNL     1      -8.226   4.268  66.935  1.00  0.00    -0.101 C  
BRANCH  17  18
HETATM   18  C   UNL     1      -9.386   3.401  67.446  1.00  0.00    -0.243 C  
BRANCH  18  19
HETATM   19  C   UNL     1      -9.782   3.611  68.913  1.00  0.00    -0.058 C  
BRANCH  19  20
HETATM   20  C   UNL     1      -8.911   2.887  69.905  1.00  0.00    -0.171 C  
HETATM   21  C   UNL     1      -8.002   3.447  70.722  1.00  0.00    -0.053 C  
HETATM   22  C   UNL     1      -7.772   4.925  70.924  1.00  0.00    -0.078 C  
HETATM   23  C   UNL     1      -6.686   5.461  69.994  1.00  0.00    -0.047 C  
HETATM   24  C   UNL     1      -7.418   5.203  72.383  1.00  0.00    -0.095 C  
ENDBRANCH  19  20
ENDBRANCH  18  19
ENDBRANCH  17  18
ENDBRANCH  16  17
ENDBRANCH  13  16
ENDBRANCH  11  12
ENDBRANCH   9  11
ENDBRANCH   2   3
TORSDOF 8
ENDMDL
MODEL      359
REMARK 921   NORMALIZED FREE ENERGY PREDICTED BY IDOCK:   -2.87 KCAL/MOL
REMARK 922        TOTAL FREE ENERGY PREDICTED BY IDOCK:   -5.43 KCAL/MOL
REMARK 923 INTER-LIGAND FREE ENERGY PREDICTED BY IDOCK:   -5.18 KCAL/MOL
REMARK 924 INTRA-LIGAND FREE ENERGY PREDICTED BY IDOCK:   -0.25 KCAL/MOL
REMARK 927      BINDING AFFINITY PREDICTED BY RF-SCORE:    0.00 PKD
ROOT
HETATM    1  C   UNL     1      -5.351  11.379  68.869  1.00  0.00    -0.039 C  
HETATM    2  O   UNL     1      -5.720  11.590  67.505  1.00  0.00    -0.049 OA 
ENDROOT
BRANCH   2   3
HETATM    3  C   UNL     1      -6.631  10.686  67.025  1.00  0.00    -0.081 A  
HETATM    4  C   UNL     1      -6.609  10.446  65.651  1.00  0.00    -0.129 A  
HETATM    5  O   UNL     1      -5.713  11.098  64.850  1.00  0.00    -0.455 OA 
HETATM    6  C   UNL     1      -7.513   9.571  65.053  1.00  0.00    -0.110 A  
HETATM    7  C   UNL     1      -8.463   8.928  65.848  1.00  0.00    -0.147 A  
HETATM    8  H   UNL     1      -5.698  10.934  63.915  1.00  0.00     0.000 HD 
HETATM    9  C   UNL     1      -8.492   9.135  67.233  1.00  0.00    -0.121 A  
HETATM   10  C   UNL     1      -7.552  10.001  67.818  1.00  0.00    -0.090 A  
BRANCH   9  11
HETATM   11  C   UNL     1      -9.559   8.520  68.099  1.00  0.00    -0.143 C  
BRANCH  11  12
HETATM   12  N   UNL     1     -10.519   9.489  68.536  1.00  0.00    -0.211 N  
HETATM   13  C   UNL     1     -10.649   9.830  69.861  1.00  0.00    -0.265 C  
HETATM   14  H   UNL     1     -11.121   9.938  67.846  1.00  0.00     0.000 HD 
HETATM   15  O   UNL     1      -9.971   9.365  70.759  1.00  0.00    -0.264 OA 
BRANCH  13  16
HETATM   16  C   UNL     1     -11.790  10.784  70.093  1.00  0.00    -0.427 C  
BRANCH  16  17
HETATM   17  C   UNL     1     -12.016  11.748  68.937  1.00  0.00    -0.332 C  
BRANCH  17  18
HETATM   18  C   UNL     1     -11.655  13.202  69.274  1.00  0.00    -0.370 C  
BRANCH  18  19
HETATM   19  C   UNL     1     -12.040  13.679  70.681  1.00  0.00    -0.398 C  
BRANCH  19  20
HETATM   20  C   UNL     1     -12.005  15.172  70.867  1.00  0.00    -0.378 C  
HETATM   21  C   UNL     1     -11.216  16.037  70.205  1.00  0.00    -0.397 C  
HETATM   22  C   UNL     1     -10.316  15.713  69.038  1.00  0.00    -0.225 C  
HETATM   23  C   UNL     1      -8.897  15.379  69.493  1.00  0.00    -0.217 C  
HETATM   24  C   UNL     1     -10.306  16.877  68.049  1.00  0.00    -0.334 C  
ENDBRANCH  19  20
ENDBRANCH  18  19
ENDBRANCH  17  18
ENDBRANCH  16  17
ENDBRANCH  13  16
ENDBRANCH  11  12
ENDBRANCH   9  11
ENDBRANCH   2   3
TORSDOF 8
ENDMDL
MODEL      360
REMARK 921   NORMALIZED FREE ENERGY PREDICTED BY IDOCK:   -2.87 KCAL/MOL
REMARK 922        TOTAL FREE ENERGY PREDICTED BY IDOCK:   -5.42 KCAL/MOL
REMARK 923 INTER-LIGAND FREE ENERGY PREDICTED BY IDOCK:   -4.40 KCAL/MOL
REMARK 924 INTRA-LIGAND FREE ENERGY PREDICTED BY IDOCK:   -1.02 KCAL/MOL
REMARK 927      BINDING AFFINITY PREDICTED BY RF-SCORE:    0.00 PKD
ROOT
HETATM    1  C   UNL     1      -9.259   9.695  64.074  1.00  0.00    -0.148 C  
HETATM    2  O   UNL     1      -8.556   8.512  64.460  1.00  0.00    -0.137 OA 
ENDROOT
BRANCH   2   3
HETATM    3  C   UNL     1      -8.446   8.342  65.815  1.00  0.00    -0.156 A  
HETATM    4  C   UNL     1      -8.988   7.171  66.343  1.00  0.00    -0.155 A  
HETATM    5  O   UNL     1      -9.593   6.258  65.524  1.00  0.00    -0.348 OA 
HETATM    6  C   UNL     1      -8.962   6.912  67.712  1.00  0.00    -0.117 A  
HETATM    7  C   UNL     1      -8.387   7.850  68.569  1.00  0.00    -0.128 A  
HETATM    8  H   UNL     1      -9.961   5.460  65.883  1.00  0.00     0.000 HD 
HETATM    9  C   UNL     1      -7.816   9.024  68.062  1.00  0.00    -0.101 A  
HETATM   10  C   UNL     1      -7.829   9.251  66.675  1.00  0.00    -0.104 A  
BRANCH   9  11
HETATM   11  C   UNL     1      -7.265  10.090  68.972  1.00  0.00    -0.076 C  
BRANCH  11  12
HETATM   12  N   UNL     1      -7.928  11.346  68.788  1.00  0.00    -0.213 N  
HETATM   13  C   UNL     1      -7.319  12.397  68.143  1.00  0.00    -0.111 C  
HETATM   14  H   UNL     1      -8.877  11.465  69.144  1.00  0.00     0.000 HD 
HETATM   15  O   UNL     1      -6.198  12.353  67.669  1.00  0.00    -0.099 OA 
BRANCH  13  16
HETATM   16  C   UNL     1      -8.163  13.643  68.163  1.00  0.00    -0.158 C  
BRANCH  16  17
HETATM   17  C   UNL     1      -9.134  13.734  66.994  1.00  0.00    -0.253 C  
BRANCH  17  18
HETATM   18  C   UNL     1     -10.608  13.770  67.426  1.00  0.00    -0.260 C  
BRANCH  18  19
HETATM   19  C   UNL     1     -10.983  12.855  68.599  1.00  0.00    -0.295 C  
BRANCH  19  20
HETATM   20  C   UNL     1     -11.897  11.715  68.235  1.00  0.00    -0.335 C  
HETATM   21  C   UNL     1     -12.185  10.651  69.004  1.00  0.00     0.045 C  
HETATM   22  C   UNL     1     -11.779  10.453  70.444  1.00  0.00    -0.419 C  
HETATM   23  C   UNL     1     -10.465   9.683  70.560  1.00  0.00    -0.367 C  
HETATM   24  C   UNL     1     -12.892   9.737  71.206  1.00  0.00    -0.472 C  
ENDBRANCH  19  20
ENDBRANCH  18  19
ENDBRANCH  17  18
ENDBRANCH  16  17
ENDBRANCH  13  16
ENDBRANCH  11  12
ENDBRANCH   9  11
ENDBRANCH   2   3
TORSDOF 8
ENDMDL
MODEL      361
REMARK 921   NORMALIZED FREE ENERGY PREDICTED BY IDOCK:   -2.86 KCAL/MOL
REMARK 922        TOTAL FREE ENERGY PREDICTED BY IDOCK:   -5.41 KCAL/MOL
REMARK 923 INTER-LIGAND FREE ENERGY PREDICTED BY IDOCK:   -4.96 KCAL/MOL
REMARK 924 INTRA-LIGAND FREE ENERGY PREDICTED BY IDOCK:   -0.45 KCAL/MOL
REMARK 927      BINDING AFFINITY PREDICTED BY RF-SCORE:    0.00 PKD
ROOT
HETATM    1  C   UNL     1      -6.060   7.179  68.515  1.00  0.00    -0.030 C  
HETATM    2  O   UNL     1      -6.141   6.215  69.567  1.00  0.00    -0.026 OA 
ENDROOT
BRANCH   2   3
HETATM    3  C   UNL     1      -7.417   5.809  69.857  1.00  0.00    -0.079 A  
HETATM    4  C   UNL     1      -7.545   4.638  70.604  1.00  0.00    -0.054 A  
HETATM    5  O   UNL     1      -6.433   3.952  71.010  1.00  0.00    -0.024 OA 
HETATM    6  C   UNL     1      -8.795   4.117  70.927  1.00  0.00    -0.137 A  
HETATM    7  C   UNL     1      -9.941   4.779  70.487  1.00  0.00    -0.306 A  
HETATM    8  H   UNL     1      -6.521   3.155  71.519  1.00  0.00     0.000 HD 
HETATM    9  C   UNL     1      -9.841   5.968  69.754  1.00  0.00    -0.208 A  
HETATM   10  C   UNL     1      -8.568   6.491  69.464  1.00  0.00    -0.134 A  
BRANCH   9  11
HETATM   11  C   UNL     1     -11.058   6.656  69.196  1.00  0.00    -0.275 C  
BRANCH  11  12
HETATM   12  N   UNL     1     -11.146   8.021  69.625  1.00  0.00    -0.442 N  
HETATM   13  C   UNL     1     -10.782   9.060  68.801  1.00  0.00    -0.108 C  
HETATM   14  H   UNL     1     -11.486   8.226  70.564  1.00  0.00     0.000 HD 
HETATM   15  O   UNL     1     -10.379   8.924  67.661  1.00  0.00    -0.222 OA 
BRANCH  13  16
HETATM   16  C   UNL     1     -10.857  10.391  69.500  1.00  0.00    -0.295 C  
BRANCH  16  17
HETATM   17  C   UNL     1     -11.831  11.363  68.848  1.00  0.00    -0.413 C  
BRANCH  17  18
HETATM   18  C   UNL     1     -11.173  12.282  67.809  1.00  0.00    -0.331 C  
BRANCH  18  19
HETATM   19  C   UNL     1     -12.129  13.168  66.998  1.00  0.00    -0.366 C  
BRANCH  19  20
HETATM   20  C   UNL     1     -11.488  13.877  65.834  1.00  0.00    -0.328 C  
HETATM   21  C   UNL     1     -10.608  14.891  65.908  1.00  0.00    -0.334 C  
HETATM   22  C   UNL     1      -9.963  15.425  67.163  1.00  0.00    -0.234 C  
HETATM   23  C   UNL     1     -10.754  16.592  67.752  1.00  0.00    -0.329 C  
HETATM   24  C   UNL     1      -8.523  15.842  66.872  1.00  0.00    -0.281 C  
ENDBRANCH  19  20
ENDBRANCH  18  19
ENDBRANCH  17  18
ENDBRANCH  16  17
ENDBRANCH  13  16
ENDBRANCH  11  12
ENDBRANCH   9  11
ENDBRANCH   2   3
TORSDOF 8
ENDMDL
MODEL      362
REMARK 921   NORMALIZED FREE ENERGY PREDICTED BY IDOCK:   -2.86 KCAL/MOL
REMARK 922        TOTAL FREE ENERGY PREDICTED BY IDOCK:   -5.41 KCAL/MOL
REMARK 923 INTER-LIGAND FREE ENERGY PREDICTED BY IDOCK:   -4.52 KCAL/MOL
REMARK 924 INTRA-LIGAND FREE ENERGY PREDICTED BY IDOCK:   -0.88 KCAL/MOL
REMARK 927      BINDING AFFINITY PREDICTED BY RF-SCORE:    0.00 PKD
ROOT
HETATM    1  C   UNL     1     -11.460   7.879  72.710  1.00  0.00    -0.368 C  
HETATM    2  O   UNL     1     -10.103   8.325  72.669  1.00  0.00    -0.289 OA 
ENDROOT
BRANCH   2   3
HETATM    3  C   UNL     1      -9.769   8.995  71.522  1.00  0.00    -0.295 A  
HETATM    4  C   UNL     1      -8.407   9.176  71.277  1.00  0.00    -0.031 A  
HETATM    5  O   UNL     1      -7.478   8.698  72.159  1.00  0.00    -0.231 OA 
HETATM    6  C   UNL     1      -7.957   9.873  70.159  1.00  0.00    -0.181 A  
HETATM    7  C   UNL     1      -8.891  10.405  69.269  1.00  0.00    -0.166 A  
HETATM    8  H   UNL     1      -6.551   8.820  71.992  1.00  0.00     0.000 HD 
HETATM    9  C   UNL     1     -10.263  10.219  69.480  1.00  0.00    -0.261 A  
HETATM   10  C   UNL     1     -10.693   9.488  70.601  1.00  0.00    -0.375 A  
BRANCH   9  11
HETATM   11  C   UNL     1     -11.291  10.854  68.582  1.00  0.00    -0.295 C  
BRANCH  11  12
HETATM   12  N   UNL     1     -11.098  10.494  67.208  1.00  0.00    -0.268 N  
HETATM   13  C   UNL     1     -10.605  11.391  66.290  1.00  0.00    -0.263 C  
HETATM   14  H   UNL     1     -11.332   9.549  66.904  1.00  0.00     0.000 HD 
HETATM   15  O   UNL     1     -10.282  12.534  66.553  1.00  0.00    -0.234 OA 
BRANCH  13  16
HETATM   16  C   UNL     1     -10.590  10.825  64.895  1.00  0.00    -0.258 C  
BRANCH  16  17
HETATM   17  C   UNL     1      -9.230  10.924  64.217  1.00  0.00    -0.221 C  
BRANCH  17  18
HETATM   18  C   UNL     1      -8.307   9.734  64.521  1.00  0.00    -0.168 C  
BRANCH  18  19
HETATM   19  C   UNL     1      -8.873   8.677  65.478  1.00  0.00    -0.220 C  
BRANCH  19  20
HETATM   20  C   UNL     1      -7.848   8.032  66.373  1.00  0.00    -0.097 C  
HETATM   21  C   UNL     1      -7.193   6.882  66.132  1.00  0.00    -0.074 C  
HETATM   22  C   UNL     1      -7.234   6.082  64.854  1.00  0.00    -0.066 C  
HETATM   23  C   UNL     1      -8.310   4.999  64.899  1.00  0.00    -0.142 C  
HETATM   24  C   UNL     1      -5.863   5.468  64.579  1.00  0.00    -0.021 C  
ENDBRANCH  19  20
ENDBRANCH  18  19
ENDBRANCH  17  18
ENDBRANCH  16  17
ENDBRANCH  13  16
ENDBRANCH  11  12
ENDBRANCH   9  11
ENDBRANCH   2   3
TORSDOF 8
ENDMDL
MODEL      363
REMARK 921   NORMALIZED FREE ENERGY PREDICTED BY IDOCK:   -2.75 KCAL/MOL
REMARK 922        TOTAL FREE ENERGY PREDICTED BY IDOCK:   -5.25 KCAL/MOL
REMARK 923 INTER-LIGAND FREE ENERGY PREDICTED BY IDOCK:   -4.47 KCAL/MOL
REMARK 924 INTRA-LIGAND FREE ENERGY PREDICTED BY IDOCK:   -0.78 KCAL/MOL
REMARK 927      BINDING AFFINITY PREDICTED BY RF-SCORE:    0.00 PKD
ROOT
HETATM    1  C   UNL     1     -11.879  15.123  68.321  1.00  0.00    -0.250 C  
HETATM    2  O   UNL     1     -10.700  15.152  67.515  1.00  0.00    -0.271 OA 
ENDROOT
BRANCH   2   3
HETATM    3  C   UNL     1     -10.138  13.920  67.301  1.00  0.00    -0.242 A  
HETATM    4  C   UNL     1     -10.133  13.456  65.986  1.00  0.00    -0.304 A  
HETATM    5  O   UNL     1     -10.672  14.214  64.984  1.00  0.00    -0.364 OA 
HETATM    6  C   UNL     1      -9.618  12.203  65.661  1.00  0.00    -0.177 A  
HETATM    7  C   UNL     1      -9.103  11.397  66.676  1.00  0.00    -0.187 A  
HETATM    8  H   UNL     1     -10.668  13.898  64.088  1.00  0.00     0.000 HD 
HETATM    9  C   UNL     1      -9.076  11.849  68.001  1.00  0.00    -0.189 A  
HETATM   10  C   UNL     1      -9.576  13.127  68.302  1.00  0.00    -0.218 A  
BRANCH   9  11
HETATM   11  C   UNL     1      -8.603  10.966  69.125  1.00  0.00    -0.050 C  
BRANCH  11  12
HETATM   12  N   UNL     1      -8.987   9.599  68.930  1.00  0.00    -0.139 N  
HETATM   13  C   UNL     1     -10.303   9.204  68.989  1.00  0.00    -0.215 C  
HETATM   14  H   UNL     1      -8.267   8.902  68.744  1.00  0.00     0.000 HD 
HETATM   15  O   UNL     1     -11.237   9.959  69.190  1.00  0.00    -0.197 OA 
BRANCH  13  16
HETATM   16  C   UNL     1     -10.455   7.712  68.861  1.00  0.00    -0.211 C  
BRANCH  16  17
HETATM   17  C   UNL     1     -10.634   7.243  67.424  1.00  0.00    -0.370 C  
BRANCH  17  18
HETATM   18  C   UNL     1      -9.307   7.047  66.676  1.00  0.00    -0.203 C  
BRANCH  18  19
HETATM   19  C   UNL     1      -8.950   5.598  66.316  1.00  0.00    -0.141 C  
BRANCH  19  20
HETATM   20  C   UNL     1      -9.922   4.569  66.828  1.00  0.00    -0.240 C  
HETATM   21  C   UNL     1      -9.851   3.926  68.007  1.00  0.00    -0.047 C  
HETATM   22  C   UNL     1      -8.875   4.209  69.122  1.00  0.00    -0.142 C  
HETATM   23  C   UNL     1      -7.628   3.334  69.018  1.00  0.00    -0.048 C  
HETATM   24  C   UNL     1      -9.559   4.016  70.474  1.00  0.00    -0.261 C  
ENDBRANCH  19  20
ENDBRANCH  18  19
ENDBRANCH  17  18
ENDBRANCH  16  17
ENDBRANCH  13  16
ENDBRANCH  11  12
ENDBRANCH   9  11
ENDBRANCH   2   3
TORSDOF 8
ENDMDL
MODEL      364
REMARK 921   NORMALIZED FREE ENERGY PREDICTED BY IDOCK:   -2.75 KCAL/MOL
REMARK 922        TOTAL FREE ENERGY PREDICTED BY IDOCK:   -5.24 KCAL/MOL
REMARK 923 INTER-LIGAND FREE ENERGY PREDICTED BY IDOCK:   -3.81 KCAL/MOL
REMARK 924 INTRA-LIGAND FREE ENERGY PREDICTED BY IDOCK:   -1.43 KCAL/MOL
REMARK 927      BINDING AFFINITY PREDICTED BY RF-SCORE:    0.00 PKD
ROOT
HETATM    1  C   UNL     1      -8.762   5.282  67.404  1.00  0.00    -0.106 C  
HETATM    2  O   UNL     1      -7.679   5.024  68.299  1.00  0.00    -0.081 OA 
ENDROOT
BRANCH   2   3
HETATM    3  C   UNL     1      -8.069   4.725  69.578  1.00  0.00    -0.069 A  
HETATM    4  C   UNL     1      -7.184   3.962  70.340  1.00  0.00    -0.041 A  
HETATM    5  O   UNL     1      -5.995   3.547  69.806  1.00  0.00    -0.021 OA 
HETATM    6  C   UNL     1      -7.494   3.573  71.640  1.00  0.00    -0.052 A  
HETATM    7  C   UNL     1      -8.721   3.950  72.188  1.00  0.00    -0.122 A  
HETATM    8  H   UNL     1      -5.392   3.028  70.325  1.00  0.00     0.000 HD 
HETATM    9  C   UNL     1      -9.618   4.735  71.452  1.00  0.00    -0.224 A  
HETATM   10  C   UNL     1      -9.271   5.140  70.152  1.00  0.00    -0.188 A  
BRANCH   9  11
HETATM   11  C   UNL     1     -10.981   5.085  71.988  1.00  0.00    -0.014 C  
BRANCH  11  12
HETATM   12  N   UNL     1     -11.060   6.456  72.396  1.00  0.00    -0.255 N  
HETATM   13  C   UNL     1     -12.025   7.302  71.900  1.00  0.00    -0.306 C  
HETATM   14  H   UNL     1     -10.385   6.814  73.070  1.00  0.00     0.000 HD 
HETATM   15  O   UNL     1     -12.884   6.970  71.104  1.00  0.00    -0.374 OA 
BRANCH  13  16
HETATM   16  C   UNL     1     -11.846   8.715  72.387  1.00  0.00    -0.402 C  
BRANCH  16  17
HETATM   17  C   UNL     1     -12.306   9.763  71.383  1.00  0.00    -0.480 C  
BRANCH  17  18
HETATM   18  C   UNL     1     -11.410   9.850  70.138  1.00  0.00    -0.335 C  
BRANCH  18  19
HETATM   19  C   UNL     1      -9.911   9.621  70.375  1.00  0.00    -0.330 C  
BRANCH  19  20
HETATM   20  C   UNL     1      -9.231   8.794  69.316  1.00  0.00    -0.149 C  
HETATM   21  C   UNL     1      -7.929   8.457  69.285  1.00  0.00    -0.113 C  
HETATM   22  C   UNL     1      -6.916   8.706  70.375  1.00  0.00    -0.043 C  
HETATM   23  C   UNL     1      -6.173  10.024  70.167  1.00  0.00    -0.077 C  
HETATM   24  C   UNL     1      -5.933   7.540  70.449  1.00  0.00    -0.027 C  
ENDBRANCH  19  20
ENDBRANCH  18  19
ENDBRANCH  17  18
ENDBRANCH  16  17
ENDBRANCH  13  16
ENDBRANCH  11  12
ENDBRANCH   9  11
ENDBRANCH   2   3
TORSDOF 8
ENDMDL
MODEL      365
REMARK 921   NORMALIZED FREE ENERGY PREDICTED BY IDOCK:   -2.73 KCAL/MOL
REMARK 922        TOTAL FREE ENERGY PREDICTED BY IDOCK:   -5.22 KCAL/MOL
REMARK 923 INTER-LIGAND FREE ENERGY PREDICTED BY IDOCK:   -4.64 KCAL/MOL
REMARK 924 INTRA-LIGAND FREE ENERGY PREDICTED BY IDOCK:   -0.58 KCAL/MOL
REMARK 927      BINDING AFFINITY PREDICTED BY RF-SCORE:    0.00 PKD
ROOT
HETATM    1  C   UNL     1      -9.146   6.314  72.158  1.00  0.00    -0.141 C  
HETATM    2  O   UNL     1      -9.374   7.665  72.563  1.00  0.00    -0.144 OA 
ENDROOT
BRANCH   2   3
HETATM    3  C   UNL     1      -9.803   8.487  71.554  1.00  0.00    -0.239 A  
HETATM    4  C   UNL     1     -11.116   8.951  71.643  1.00  0.00    -0.350 A  
HETATM    5  O   UNL     1     -11.908   8.585  72.695  1.00  0.00    -0.369 OA 
HETATM    6  C   UNL     1     -11.665   9.765  70.655  1.00  0.00    -0.377 A  
HETATM    7  C   UNL     1     -10.886  10.115  69.552  1.00  0.00    -0.289 A  
HETATM    8  H   UNL     1     -12.802   8.902  72.755  1.00  0.00     0.000 HD 
HETATM    9  C   UNL     1      -9.558   9.680  69.450  1.00  0.00    -0.200 A  
HETATM   10  C   UNL     1      -9.016   8.883  70.473  1.00  0.00    -0.224 A  
BRANCH   9  11
HETATM   11  C   UNL     1      -8.724   9.974  68.232  1.00  0.00    -0.119 C  
BRANCH  11  12
HETATM   12  N   UNL     1      -7.614  10.827  68.537  1.00  0.00    -0.097 N  
HETATM   13  C   UNL     1      -7.517  12.098  68.021  1.00  0.00    -0.116 C  
HETATM   14  H   UNL     1      -6.877  10.483  69.152  1.00  0.00     0.000 HD 
HETATM   15  O   UNL     1      -8.348  12.608  67.292  1.00  0.00    -0.176 OA 
BRANCH  13  16
HETATM   16  C   UNL     1      -6.218  12.764  68.390  1.00  0.00    -0.073 C  
BRANCH  16  17
HETATM   17  C   UNL     1      -6.399  14.158  68.976  1.00  0.00    -0.098 C  
BRANCH  17  18
HETATM   18  C   UNL     1      -5.848  15.274  68.075  1.00  0.00    -0.152 C  
BRANCH  18  19
HETATM   19  C   UNL     1      -6.594  16.613  68.139  1.00  0.00    -0.148 C  
BRANCH  19  20
HETATM   20  C   UNL     1      -7.513  16.874  66.975  1.00  0.00    -0.231 C  
HETATM   21  C   UNL     1      -7.445  17.915  66.126  1.00  0.00    -0.315 C  
HETATM   22  C   UNL     1      -6.350  18.951  66.069  1.00  0.00    -0.236 C  
HETATM   23  C   UNL     1      -6.685  20.175  66.920  1.00  0.00    -0.258 C  
HETATM   24  C   UNL     1      -6.092  19.357  64.620  1.00  0.00    -0.292 C  
ENDBRANCH  19  20
ENDBRANCH  18  19
ENDBRANCH  17  18
ENDBRANCH  16  17
ENDBRANCH  13  16
ENDBRANCH  11  12
ENDBRANCH   9  11
ENDBRANCH   2   3
TORSDOF 8
ENDMDL
MODEL      366
REMARK 921   NORMALIZED FREE ENERGY PREDICTED BY IDOCK:   -2.72 KCAL/MOL
REMARK 922        TOTAL FREE ENERGY PREDICTED BY IDOCK:   -5.20 KCAL/MOL
REMARK 923 INTER-LIGAND FREE ENERGY PREDICTED BY IDOCK:   -5.18 KCAL/MOL
REMARK 924 INTRA-LIGAND FREE ENERGY PREDICTED BY IDOCK:   -0.02 KCAL/MOL
REMARK 927      BINDING AFFINITY PREDICTED BY RF-SCORE:    0.00 PKD
ROOT
HETATM    1  C   UNL     1      -7.068  18.340  68.974  1.00  0.00    -0.236 C  
HETATM    2  O   UNL     1      -7.069  18.106  67.565  1.00  0.00    -0.195 OA 
ENDROOT
BRANCH   2   3
HETATM    3  C   UNL     1      -7.732  16.968  67.187  1.00  0.00    -0.176 A  
HETATM    4  C   UNL     1      -8.967  17.143  66.561  1.00  0.00    -0.272 A  
HETATM    5  O   UNL     1      -9.463  18.400  66.352  1.00  0.00    -0.311 OA 
HETATM    6  C   UNL     1      -9.741  16.055  66.166  1.00  0.00    -0.353 A  
HETATM    7  C   UNL     1      -9.271  14.764  66.409  1.00  0.00    -0.301 A  
HETATM    8  H   UNL     1     -10.303  18.519  65.925  1.00  0.00     0.000 HD 
HETATM    9  C   UNL     1      -8.025  14.561  67.016  1.00  0.00    -0.074 A  
HETATM   10  C   UNL     1      -7.249  15.674  67.381  1.00  0.00    -0.241 A  
BRANCH   9  11
HETATM   11  C   UNL     1      -7.534  13.181  67.365  1.00  0.00    -0.124 C  
BRANCH  11  12
HETATM   12  N   UNL     1      -8.231  12.164  66.634  1.00  0.00    -0.375 N  
HETATM   13  C   UNL     1      -9.301  11.491  67.176  1.00  0.00    -0.172 C  
HETATM   14  H   UNL     1      -7.927  11.934  65.688  1.00  0.00     0.000 HD 
HETATM   15  O   UNL     1      -9.751  11.700  68.288  1.00  0.00    -0.186 OA 
BRANCH  13  16
HETATM   16  C   UNL     1      -9.803  10.399  66.270  1.00  0.00    -0.272 C  
BRANCH  16  17
HETATM   17  C   UNL     1     -10.431   9.233  67.020  1.00  0.00    -0.303 C  
BRANCH  17  18
HETATM   18  C   UNL     1      -9.681   8.858  68.307  1.00  0.00    -0.174 C  
BRANCH  18  19
HETATM   19  C   UNL     1     -10.560   8.513  69.517  1.00  0.00    -0.215 C  
BRANCH  19  20
HETATM   20  C   UNL     1      -9.826   8.470  70.831  1.00  0.00    -0.234 C  
HETATM   21  C   UNL     1      -9.866   7.472  71.732  1.00  0.00    -0.192 C  
HETATM   22  C   UNL     1     -10.529   6.129  71.549  1.00  0.00    -0.268 C  
HETATM   23  C   UNL     1     -11.964   6.131  72.073  1.00  0.00    -0.310 C  
HETATM   24  C   UNL     1      -9.705   5.043  72.237  1.00  0.00    -0.201 C  
ENDBRANCH  19  20
ENDBRANCH  18  19
ENDBRANCH  17  18
ENDBRANCH  16  17
ENDBRANCH  13  16
ENDBRANCH  11  12
ENDBRANCH   9  11
ENDBRANCH   2   3
TORSDOF 8
ENDMDL
MODEL      367
REMARK 921   NORMALIZED FREE ENERGY PREDICTED BY IDOCK:   -2.70 KCAL/MOL
REMARK 922        TOTAL FREE ENERGY PREDICTED BY IDOCK:   -5.18 KCAL/MOL
REMARK 923 INTER-LIGAND FREE ENERGY PREDICTED BY IDOCK:   -4.20 KCAL/MOL
REMARK 924 INTRA-LIGAND FREE ENERGY PREDICTED BY IDOCK:   -0.98 KCAL/MOL
REMARK 927      BINDING AFFINITY PREDICTED BY RF-SCORE:    0.00 PKD
ROOT
HETATM    1  C   UNL     1     -11.231  10.469  70.300  1.00  0.00    -0.313 C  
HETATM    2  O   UNL     1     -12.063  11.482  69.732  1.00  0.00    -0.309 OA 
ENDROOT
BRANCH   2   3
HETATM    3  C   UNL     1     -11.416  12.310  68.853  1.00  0.00    -0.304 A  
HETATM    4  C   UNL     1     -11.638  13.679  69.004  1.00  0.00    -0.312 A  
HETATM    5  O   UNL     1     -12.468  14.139  69.989  1.00  0.00    -0.340 OA 
HETATM    6  C   UNL     1     -11.058  14.608  68.144  1.00  0.00    -0.285 A  
HETATM    7  C   UNL     1     -10.241  14.155  67.107  1.00  0.00    -0.258 A  
HETATM    8  H   UNL     1     -12.619  15.071  70.092  1.00  0.00     0.000 HD 
HETATM    9  C   UNL     1      -9.984  12.788  66.947  1.00  0.00    -0.232 A  
HETATM   10  C   UNL     1     -10.559  11.871  67.844  1.00  0.00    -0.229 A  
BRANCH   9  11
HETATM   11  C   UNL     1      -9.177  12.269  65.787  1.00  0.00     0.032 C  
BRANCH  11  12
HETATM   12  N   UNL     1      -8.028  11.531  66.222  1.00  0.00    -0.363 N  
HETATM   13  C   UNL     1      -7.672  10.337  65.640  1.00  0.00    -0.148 C  
HETATM   14  H   UNL     1      -7.459  11.901  66.984  1.00  0.00     0.000 HD 
HETATM   15  O   UNL     1      -8.274   9.819  64.717  1.00  0.00    -0.132 OA 
BRANCH  13  16
HETATM   16  C   UNL     1      -6.500   9.695  66.330  1.00  0.00    -0.070 C  
BRANCH  16  17
HETATM   17  C   UNL     1      -6.903   8.747  67.451  1.00  0.00    -0.071 C  
BRANCH  17  18
HETATM   18  C   UNL     1      -7.656   7.502  66.957  1.00  0.00    -0.103 C  
BRANCH  18  19
HETATM   19  C   UNL     1      -9.000   7.218  67.641  1.00  0.00    -0.126 C  
BRANCH  19  20
HETATM   20  C   UNL     1      -9.118   7.766  69.038  1.00  0.00    -0.144 C  
HETATM   21  C   UNL     1      -8.773   7.132  70.173  1.00  0.00    -0.141 C  
HETATM   22  C   UNL     1      -8.057   5.808  70.274  1.00  0.00    -0.105 C  
HETATM   23  C   UNL     1      -9.037   4.643  70.387  1.00  0.00    -0.167 C  
HETATM   24  C   UNL     1      -7.098   5.824  71.463  1.00  0.00    -0.077 C  
ENDBRANCH  19  20
ENDBRANCH  18  19
ENDBRANCH  17  18
ENDBRANCH  16  17
ENDBRANCH  13  16
ENDBRANCH  11  12
ENDBRANCH   9  11
ENDBRANCH   2   3
TORSDOF 8
ENDMDL
MODEL      368
REMARK 921   NORMALIZED FREE ENERGY PREDICTED BY IDOCK:   -2.70 KCAL/MOL
REMARK 922        TOTAL FREE ENERGY PREDICTED BY IDOCK:   -5.17 KCAL/MOL
REMARK 923 INTER-LIGAND FREE ENERGY PREDICTED BY IDOCK:   -3.93 KCAL/MOL
REMARK 924 INTRA-LIGAND FREE ENERGY PREDICTED BY IDOCK:   -1.24 KCAL/MOL
REMARK 927      BINDING AFFINITY PREDICTED BY RF-SCORE:    0.00 PKD
ROOT
HETATM    1  C   UNL     1      -9.069   5.163  67.205  1.00  0.00    -0.112 C  
HETATM    2  O   UNL     1      -7.970   4.775  68.032  1.00  0.00    -0.085 OA 
ENDROOT
BRANCH   2   3
HETATM    3  C   UNL     1      -8.285   4.652  69.360  1.00  0.00    -0.072 A  
HETATM    4  C   UNL     1      -7.432   3.865  70.134  1.00  0.00    -0.045 A  
HETATM    5  O   UNL     1      -6.347   3.258  69.566  1.00  0.00    -0.028 OA 
HETATM    6  C   UNL     1      -7.677   3.646  71.488  1.00  0.00    -0.057 A  
HETATM    7  C   UNL     1      -8.803   4.222  72.076  1.00  0.00    -0.134 A  
HETATM    8  H   UNL     1      -5.766   2.722  70.093  1.00  0.00     0.000 HD 
HETATM    9  C   UNL     1      -9.663   5.035  71.326  1.00  0.00    -0.235 A  
HETATM   10  C   UNL     1      -9.380   5.265  69.969  1.00  0.00    -0.201 A  
BRANCH   9  11
HETATM   11  C   UNL     1     -10.928   5.599  71.916  1.00  0.00    -0.235 C  
BRANCH  11  12
HETATM   12  N   UNL     1     -10.891   7.030  71.992  1.00  0.00    -0.219 N  
HETATM   13  C   UNL     1     -11.997   7.796  71.708  1.00  0.00    -0.296 C  
HETATM   14  H   UNL     1     -10.023   7.491  72.264  1.00  0.00     0.000 HD 
HETATM   15  O   UNL     1     -13.081   7.344  71.390  1.00  0.00    -0.364 OA 
BRANCH  13  16
HETATM   16  C   UNL     1     -11.693   9.270  71.750  1.00  0.00    -0.456 C  
BRANCH  16  17
HETATM   17  C   UNL     1     -12.143  10.016  70.502  1.00  0.00    -0.338 C  
BRANCH  17  18
HETATM   18  C   UNL     1     -11.301   9.690  69.259  1.00  0.00    -0.003 C  
BRANCH  18  19
HETATM   19  C   UNL     1      -9.779   9.712  69.457  1.00  0.00    -0.216 C  
BRANCH  19  20
HETATM   20  C   UNL     1      -9.028   8.688  68.648  1.00  0.00    -0.142 C  
HETATM   21  C   UNL     1      -8.579   8.842  67.390  1.00  0.00    -0.119 C  
HETATM   22  C   UNL     1      -8.599  10.118  66.584  1.00  0.00    -0.130 C  
HETATM   23  C   UNL     1      -9.858  10.226  65.728  1.00  0.00    -0.320 C  
HETATM   24  C   UNL     1      -7.346  10.204  65.715  1.00  0.00    -0.128 C  
ENDBRANCH  19  20
ENDBRANCH  18  19
ENDBRANCH  17  18
ENDBRANCH  16  17
ENDBRANCH  13  16
ENDBRANCH  11  12
ENDBRANCH   9  11
ENDBRANCH   2   3
TORSDOF 8
ENDMDL
MODEL      369
REMARK 921   NORMALIZED FREE ENERGY PREDICTED BY IDOCK:   -2.65 KCAL/MOL
REMARK 922        TOTAL FREE ENERGY PREDICTED BY IDOCK:   -5.11 KCAL/MOL
REMARK 923 INTER-LIGAND FREE ENERGY PREDICTED BY IDOCK:   -4.25 KCAL/MOL
REMARK 924 INTRA-LIGAND FREE ENERGY PREDICTED BY IDOCK:   -0.86 KCAL/MOL
REMARK 927      BINDING AFFINITY PREDICTED BY RF-SCORE:    0.00 PKD
ROOT
HETATM    1  C   UNL     1      -9.469   9.882  64.829  1.00  0.00    -0.291 C  
HETATM    2  O   UNL     1      -8.667   8.726  65.076  1.00  0.00    -0.187 OA 
ENDROOT
BRANCH   2   3
HETATM    3  C   UNL     1      -8.795   8.215  66.340  1.00  0.00    -0.155 A  
HETATM    4  C   UNL     1      -9.124   6.863  66.438  1.00  0.00    -0.159 A  
HETATM    5  O   UNL     1      -9.305   6.113  65.309  1.00  0.00    -0.357 OA 
HETATM    6  C   UNL     1      -9.312   6.250  67.674  1.00  0.00    -0.116 A  
HETATM    7  C   UNL     1      -9.173   7.008  68.837  1.00  0.00    -0.136 A  
HETATM    8  H   UNL     1      -9.528   5.193  65.375  1.00  0.00     0.000 HD 
HETATM    9  C   UNL     1      -8.821   8.362  68.767  1.00  0.00    -0.140 A  
HETATM   10  C   UNL     1      -8.610   8.953  67.510  1.00  0.00    -0.120 A  
BRANCH   9  11
HETATM   11  C   UNL     1      -8.748   9.222  70.001  1.00  0.00    -0.195 C  
BRANCH  11  12
HETATM   12  N   UNL     1      -8.166  10.502  69.728  1.00  0.00    -0.378 N  
HETATM   13  C   UNL     1      -6.825  10.741  69.917  1.00  0.00    -0.146 C  
HETATM   14  H   UNL     1      -8.761  11.255  69.383  1.00  0.00     0.000 HD 
HETATM   15  O   UNL     1      -6.029   9.908  70.309  1.00  0.00    -0.049 OA 
BRANCH  13  16
HETATM   16  C   UNL     1      -6.464  12.181  69.668  1.00  0.00    -0.082 C  
BRANCH  16  17
HETATM   17  C   UNL     1      -6.101  12.470  68.218  1.00  0.00    -0.065 C  
BRANCH  17  18
HETATM   18  C   UNL     1      -7.158  13.304  67.479  1.00  0.00    -0.156 C  
BRANCH  18  19
HETATM   19  C   UNL     1      -8.419  13.650  68.282  1.00  0.00    -0.170 C  
BRANCH  19  20
HETATM   20  C   UNL     1      -8.811  15.103  68.235  1.00  0.00    -0.173 C  
HETATM   21  C   UNL     1     -10.059  15.593  68.338  1.00  0.00    -0.214 C  
HETATM   22  C   UNL     1     -11.303  14.808  68.675  1.00  0.00    -0.305 C  
HETATM   23  C   UNL     1     -12.022  14.322  67.418  1.00  0.00    -0.426 C  
HETATM   24  C   UNL     1     -12.236  15.654  69.537  1.00  0.00    -0.231 C  
ENDBRANCH  19  20
ENDBRANCH  18  19
ENDBRANCH  17  18
ENDBRANCH  16  17
ENDBRANCH  13  16
ENDBRANCH  11  12
ENDBRANCH   9  11
ENDBRANCH   2   3
TORSDOF 8
ENDMDL
MODEL      370
REMARK 921   NORMALIZED FREE ENERGY PREDICTED BY IDOCK:   -2.60 KCAL/MOL
REMARK 922        TOTAL FREE ENERGY PREDICTED BY IDOCK:   -5.03 KCAL/MOL
REMARK 923 INTER-LIGAND FREE ENERGY PREDICTED BY IDOCK:   -3.46 KCAL/MOL
REMARK 924 INTRA-LIGAND FREE ENERGY PREDICTED BY IDOCK:   -1.57 KCAL/MOL
REMARK 927      BINDING AFFINITY PREDICTED BY RF-SCORE:    0.00 PKD
ROOT
HETATM    1  C   UNL     1      -6.821  10.144  70.176  1.00  0.00    -0.146 C  
HETATM    2  O   UNL     1      -8.218   9.916  70.371  1.00  0.00    -0.172 OA 
ENDROOT
BRANCH   2   3
HETATM    3  C   UNL     1      -8.944   9.866  69.210  1.00  0.00    -0.178 A  
HETATM    4  C   UNL     1     -10.296  10.196  69.304  1.00  0.00    -0.223 A  
HETATM    5  O   UNL     1     -10.840  10.544  70.509  1.00  0.00    -0.426 OA 
HETATM    6  C   UNL     1     -11.134  10.146  68.193  1.00  0.00    -0.290 A  
HETATM    7  C   UNL     1     -10.608   9.751  66.962  1.00  0.00    -0.269 A  
HETATM    8  H   UNL     1     -11.761  10.769  70.573  1.00  0.00     0.000 HD 
HETATM    9  C   UNL     1      -9.249   9.437  66.836  1.00  0.00    -0.173 A  
HETATM   10  C   UNL     1      -8.416   9.521  67.966  1.00  0.00    -0.119 A  
BRANCH   9  11
HETATM   11  C   UNL     1      -8.675   8.928  65.541  1.00  0.00    -0.183 C  
BRANCH  11  12
HETATM   12  N   UNL     1      -7.476   8.171  65.747  1.00  0.00    -0.078 N  
HETATM   13  C   UNL     1      -7.474   6.796  65.702  1.00  0.00    -0.082 C  
HETATM   14  H   UNL     1      -6.602   8.663  65.932  1.00  0.00     0.000 HD 
HETATM   15  O   UNL     1      -8.457   6.116  65.474  1.00  0.00    -0.146 OA 
BRANCH  13  16
HETATM   16  C   UNL     1      -6.129   6.219  66.053  1.00  0.00    -0.033 C  
BRANCH  16  17
HETATM   17  C   UNL     1      -6.215   4.983  66.939  1.00  0.00    -0.032 C  
BRANCH  17  18
HETATM   18  C   UNL     1      -5.296   5.048  68.168  1.00  0.00    -0.011 C  
BRANCH  18  19
HETATM   19  C   UNL     1      -5.997   5.251  69.518  1.00  0.00    -0.021 C  
BRANCH  19  20
HETATM   20  C   UNL     1      -7.033   6.344  69.526  1.00  0.00    -0.071 C  
HETATM   21  C   UNL     1      -8.361   6.180  69.663  1.00  0.00    -0.124 C  
HETATM   22  C   UNL     1      -9.073   4.890  69.990  1.00  0.00    -0.157 C  
HETATM   23  C   UNL     1      -9.511   4.151  68.728  1.00  0.00    -0.231 C  
HETATM   24  C   UNL     1     -10.271   5.171  70.894  1.00  0.00    -0.299 C  
ENDBRANCH  19  20
ENDBRANCH  18  19
ENDBRANCH  17  18
ENDBRANCH  16  17
ENDBRANCH  13  16
ENDBRANCH  11  12
ENDBRANCH   9  11
ENDBRANCH   2   3
TORSDOF 8
ENDMDL
MODEL      371
REMARK 921   NORMALIZED FREE ENERGY PREDICTED BY IDOCK:   -2.57 KCAL/MOL
REMARK 922        TOTAL FREE ENERGY PREDICTED BY IDOCK:   -4.99 KCAL/MOL
REMARK 923 INTER-LIGAND FREE ENERGY PREDICTED BY IDOCK:   -4.06 KCAL/MOL
REMARK 924 INTRA-LIGAND FREE ENERGY PREDICTED BY IDOCK:   -0.93 KCAL/MOL
REMARK 927      BINDING AFFINITY PREDICTED BY RF-SCORE:    0.00 PKD
ROOT
HETATM    1  C   UNL     1      -7.461   6.452  65.746  1.00  0.00    -0.082 C  
HETATM    2  O   UNL     1      -8.591   7.013  65.077  1.00  0.00    -0.034 OA 
ENDROOT
BRANCH   2   3
HETATM    3  C   UNL     1      -8.800   8.340  65.348  1.00  0.00    -0.073 A  
HETATM    4  C   UNL     1      -8.736   9.217  64.265  1.00  0.00    -0.150 A  
HETATM    5  O   UNL     1      -8.473   8.745  63.009  1.00  0.00    -0.266 OA 
HETATM    6  C   UNL     1      -8.899  10.590  64.432  1.00  0.00    -0.210 A  
HETATM    7  C   UNL     1      -9.126  11.095  65.713  1.00  0.00    -0.222 A  
HETATM    8  H   UNL     1      -8.430   9.342  62.271  1.00  0.00     0.000 HD 
HETATM    9  C   UNL     1      -9.217  10.234  66.814  1.00  0.00    -0.180 A  
HETATM   10  C   UNL     1      -9.076   8.850  66.617  1.00  0.00    -0.192 A  
BRANCH   9  11
HETATM   11  C   UNL     1      -9.377  10.761  68.215  1.00  0.00    -0.161 C  
BRANCH  11  12
HETATM   12  N   UNL     1     -10.012   9.807  69.076  1.00  0.00    -0.175 N  
HETATM   13  C   UNL     1      -9.396   9.339  70.213  1.00  0.00    -0.239 C  
HETATM   14  H   UNL     1     -10.944   9.468  68.840  1.00  0.00     0.000 HD 
HETATM   15  O   UNL     1      -8.294   9.691  70.590  1.00  0.00    -0.220 OA 
BRANCH  13  16
HETATM   16  C   UNL     1     -10.205   8.270  70.898  1.00  0.00    -0.224 C  
BRANCH  16  17
HETATM   17  C   UNL     1     -11.532   7.982  70.210  1.00  0.00    -0.078 C  
BRANCH  17  18
HETATM   18  C   UNL     1     -11.873   6.486  70.143  1.00  0.00    -0.331 C  
BRANCH  18  19
HETATM   19  C   UNL     1     -10.771   5.572  69.588  1.00  0.00    -0.349 C  
BRANCH  19  20
HETATM   20  C   UNL     1     -10.139   4.664  70.610  1.00  0.00    -0.261 C  
HETATM   21  C   UNL     1      -9.209   3.723  70.369  1.00  0.00    -0.213 C  
HETATM   22  C   UNL     1      -8.496   3.485  69.061  1.00  0.00    -0.099 C  
HETATM   23  C   UNL     1      -9.208   2.435  68.211  1.00  0.00    -0.255 C  
HETATM   24  C   UNL     1      -7.049   3.075  69.324  1.00  0.00    -0.045 C  
ENDBRANCH  19  20
ENDBRANCH  18  19
ENDBRANCH  17  18
ENDBRANCH  16  17
ENDBRANCH  13  16
ENDBRANCH  11  12
ENDBRANCH   9  11
ENDBRANCH   2   3
TORSDOF 8
ENDMDL
MODEL      372
REMARK 921   NORMALIZED FREE ENERGY PREDICTED BY IDOCK:   -2.53 KCAL/MOL
REMARK 922        TOTAL FREE ENERGY PREDICTED BY IDOCK:   -4.93 KCAL/MOL
REMARK 923 INTER-LIGAND FREE ENERGY PREDICTED BY IDOCK:   -4.30 KCAL/MOL
REMARK 924 INTRA-LIGAND FREE ENERGY PREDICTED BY IDOCK:   -0.63 KCAL/MOL
REMARK 927      BINDING AFFINITY PREDICTED BY RF-SCORE:    0.00 PKD
ROOT
HETATM    1  C   UNL     1      -8.775   4.772  70.728  1.00  0.00    -0.109 C  
HETATM    2  O   UNL     1      -8.741   5.712  71.804  1.00  0.00    -0.134 OA 
ENDROOT
BRANCH   2   3
HETATM    3  C   UNL     1      -9.389   6.890  71.539  1.00  0.00    -0.155 A  
HETATM    4  C   UNL     1     -10.191   7.404  72.558  1.00  0.00    -0.216 A  
HETATM    5  O   UNL     1     -10.306   6.741  73.748  1.00  0.00    -0.306 OA 
HETATM    6  C   UNL     1     -10.921   8.578  72.384  1.00  0.00    -0.390 A  
HETATM    7  C   UNL     1     -10.849   9.247  71.161  1.00  0.00    -0.407 A  
HETATM    8  H   UNL     1     -10.852   7.092  74.442  1.00  0.00     0.000 HD 
HETATM    9  C   UNL     1     -10.034   8.764  70.130  1.00  0.00    -0.201 A  
HETATM   10  C   UNL     1      -9.285   7.592  70.338  1.00  0.00    -0.156 A  
BRANCH   9  11
HETATM   11  C   UNL     1     -10.005   9.419  68.776  1.00  0.00    -0.179 C  
BRANCH  11  12
HETATM   12  N   UNL     1      -8.740  10.037  68.507  1.00  0.00    -0.120 N  
HETATM   13  C   UNL     1      -8.572  11.399  68.582  1.00  0.00    -0.126 C  
HETATM   14  H   UNL     1      -7.945   9.451  68.254  1.00  0.00     0.000 HD 
HETATM   15  O   UNL     1      -9.451  12.183  68.889  1.00  0.00    -0.008 OA 
BRANCH  13  16
HETATM   16  C   UNL     1      -7.193  11.826  68.155  1.00  0.00    -0.086 C  
BRANCH  16  17
HETATM   17  C   UNL     1      -6.741  13.134  68.789  1.00  0.00    -0.100 C  
BRANCH  17  18
HETATM   18  C   UNL     1      -6.588  14.281  67.780  1.00  0.00    -0.189 C  
BRANCH  18  19
HETATM   19  C   UNL     1      -7.895  14.915  67.284  1.00  0.00    -0.235 C  
BRANCH  19  20
HETATM   20  C   UNL     1      -7.757  16.333  66.798  1.00  0.00    -0.295 C  
HETATM   21  C   UNL     1      -8.764  17.162  66.469  1.00  0.00    -0.293 C  
HETATM   22  C   UNL     1     -10.237  16.899  66.661  1.00  0.00    -0.312 C  
HETATM   23  C   UNL     1     -10.867  16.277  65.416  1.00  0.00    -0.284 C  
HETATM   24  C   UNL     1     -10.953  18.193  67.038  1.00  0.00     0.001 C  
ENDBRANCH  19  20
ENDBRANCH  18  19
ENDBRANCH  17  18
ENDBRANCH  16  17
ENDBRANCH  13  16
ENDBRANCH  11  12
ENDBRANCH   9  11
ENDBRANCH   2   3
TORSDOF 8
ENDMDL
MODEL      373
REMARK 921   NORMALIZED FREE ENERGY PREDICTED BY IDOCK:   -2.50 KCAL/MOL
REMARK 922        TOTAL FREE ENERGY PREDICTED BY IDOCK:   -4.89 KCAL/MOL
REMARK 923 INTER-LIGAND FREE ENERGY PREDICTED BY IDOCK:   -3.94 KCAL/MOL
REMARK 924 INTRA-LIGAND FREE ENERGY PREDICTED BY IDOCK:   -0.94 KCAL/MOL
REMARK 927      BINDING AFFINITY PREDICTED BY RF-SCORE:    0.00 PKD
ROOT
HETATM    1  C   UNL     1     -10.587   4.728  72.648  1.00  0.00    -0.211 C  
HETATM    2  O   UNL     1     -10.894   5.963  73.298  1.00  0.00    -0.253 OA 
ENDROOT
BRANCH   2   3
HETATM    3  C   UNL     1     -10.686   7.071  72.520  1.00  0.00    -0.242 A  
HETATM    4  C   UNL     1     -11.822   7.685  71.990  1.00  0.00    -0.301 A  
HETATM    5  O   UNL     1     -13.065   7.179  72.252  1.00  0.00    -0.515 OA 
HETATM    6  C   UNL     1     -11.724   8.798  71.159  1.00  0.00    -0.344 A  
HETATM    7  C   UNL     1     -10.462   9.303  70.846  1.00  0.00    -0.372 A  
HETATM    8  H   UNL     1     -13.838   7.597  71.892  1.00  0.00     0.000 HD 
HETATM    9  C   UNL     1      -9.307   8.719  71.382  1.00  0.00    -0.328 A  
HETATM   10  C   UNL     1      -9.431   7.614  72.241  1.00  0.00    -0.209 A  
BRANCH   9  11
HETATM   11  C   UNL     1      -7.932   9.193  70.994  1.00  0.00    -0.125 C  
BRANCH  11  12
HETATM   12  N   UNL     1      -7.449   8.530  69.819  1.00  0.00    -0.069 N  
HETATM   13  C   UNL     1      -6.321   7.744  69.846  1.00  0.00    -0.030 C  
HETATM   14  H   UNL     1      -7.956   8.643  68.941  1.00  0.00     0.000 HD 
HETATM   15  O   UNL     1      -5.655   7.533  70.843  1.00  0.00    -0.030 OA 
BRANCH  13  16
HETATM   16  C   UNL     1      -5.947   7.240  68.478  1.00  0.00    -0.027 C  
BRANCH  16  17
HETATM   17  C   UNL     1      -7.149   6.867  67.622  1.00  0.00    -0.085 C  
BRANCH  17  18
HETATM   18  C   UNL     1      -7.593   5.407  67.795  1.00  0.00    -0.088 C  
BRANCH  18  19
HETATM   19  C   UNL     1      -9.105   5.154  67.726  1.00  0.00    -0.119 C  
BRANCH  19  20
HETATM   20  C   UNL     1      -9.732   5.471  66.395  1.00  0.00    -0.182 C  
HETATM   21  C   UNL     1      -9.683   4.706  65.290  1.00  0.00    -0.149 C  
HETATM   22  C   UNL     1      -9.125   3.307  65.197  1.00  0.00    -0.146 C  
HETATM   23  C   UNL     1      -7.655   3.311  64.780  1.00  0.00    -0.077 C  
HETATM   24  C   UNL     1      -9.959   2.477  64.224  1.00  0.00    -0.044 C  
ENDBRANCH  19  20
ENDBRANCH  18  19
ENDBRANCH  17  18
ENDBRANCH  16  17
ENDBRANCH  13  16
ENDBRANCH  11  12
ENDBRANCH   9  11
ENDBRANCH   2   3
TORSDOF 8
ENDMDL
MODEL      374
REMARK 921   NORMALIZED FREE ENERGY PREDICTED BY IDOCK:   -2.48 KCAL/MOL
REMARK 922        TOTAL FREE ENERGY PREDICTED BY IDOCK:   -4.85 KCAL/MOL
REMARK 923 INTER-LIGAND FREE ENERGY PREDICTED BY IDOCK:   -4.01 KCAL/MOL
REMARK 924 INTRA-LIGAND FREE ENERGY PREDICTED BY IDOCK:   -0.84 KCAL/MOL
REMARK 927      BINDING AFFINITY PREDICTED BY RF-SCORE:    0.00 PKD
ROOT
HETATM    1  C   UNL     1      -8.169   8.411  64.343  1.00  0.00    -0.138 C  
HETATM    2  O   UNL     1      -7.811   7.069  64.009  1.00  0.00    -0.118 OA 
ENDROOT
BRANCH   2   3
HETATM    3  C   UNL     1      -8.220   6.135  64.925  1.00  0.00    -0.125 A  
HETATM    4  C   UNL     1      -9.074   5.135  64.459  1.00  0.00     0.063 A  
HETATM    5  O   UNL     1      -9.465   5.116  63.149  1.00  0.00    -0.340 OA 
HETATM    6  C   UNL     1      -9.577   4.156  65.312  1.00  0.00    -0.186 A  
HETATM    7  C   UNL     1      -9.222   4.183  66.662  1.00  0.00    -0.164 A  
HETATM    8  H   UNL     1     -10.046   4.434  62.832  1.00  0.00     0.000 HD 
HETATM    9  C   UNL     1      -8.350   5.163  67.150  1.00  0.00    -0.107 A  
HETATM   10  C   UNL     1      -7.832   6.125  66.265  1.00  0.00    -0.104 A  
BRANCH   9  11
HETATM   11  C   UNL     1      -8.019   5.265  68.615  1.00  0.00    -0.087 C  
BRANCH  11  12
HETATM   12  N   UNL     1      -8.868   4.433  69.414  1.00  0.00    -0.086 N  
HETATM   13  C   UNL     1      -8.358   3.590  70.374  1.00  0.00    -0.056 C  
HETATM   14  H   UNL     1      -9.877   4.466  69.268  1.00  0.00     0.000 HD 
HETATM   15  O   UNL     1      -7.174   3.488  70.636  1.00  0.00    -0.037 OA 
BRANCH  13  16
HETATM   16  C   UNL     1      -9.425   2.740  71.009  1.00  0.00    -0.226 C  
BRANCH  16  17
HETATM   17  C   UNL     1      -9.556   2.956  72.511  1.00  0.00    -0.180 C  
BRANCH  17  18
HETATM   18  C   UNL     1      -9.387   4.423  72.934  1.00  0.00    -0.146 C  
BRANCH  18  19
HETATM   19  C   UNL     1     -10.618   5.083  73.569  1.00  0.00    -0.307 C  
BRANCH  19  20
HETATM   20  C   UNL     1     -10.394   6.491  74.052  1.00  0.00    -0.362 C  
HETATM   21  C   UNL     1     -10.471   7.609  73.307  1.00  0.00    -0.414 C  
HETATM   22  C   UNL     1     -10.946   7.699  71.878  1.00  0.00    -0.282 C  
HETATM   23  C   UNL     1      -9.787   7.594  70.889  1.00  0.00    -0.179 C  
HETATM   24  C   UNL     1     -11.719   8.999  71.667  1.00  0.00    -0.431 C  
ENDBRANCH  19  20
ENDBRANCH  18  19
ENDBRANCH  17  18
ENDBRANCH  16  17
ENDBRANCH  13  16
ENDBRANCH  11  12
ENDBRANCH   9  11
ENDBRANCH   2   3
TORSDOF 8
ENDMDL
MODEL      375
REMARK 921   NORMALIZED FREE ENERGY PREDICTED BY IDOCK:   -2.45 KCAL/MOL
REMARK 922        TOTAL FREE ENERGY PREDICTED BY IDOCK:   -4.81 KCAL/MOL
REMARK 923 INTER-LIGAND FREE ENERGY PREDICTED BY IDOCK:   -3.52 KCAL/MOL
REMARK 924 INTRA-LIGAND FREE ENERGY PREDICTED BY IDOCK:   -1.30 KCAL/MOL
REMARK 927      BINDING AFFINITY PREDICTED BY RF-SCORE:    0.00 PKD
ROOT
HETATM    1  C   UNL     1      -9.967   8.008  67.577  1.00  0.00    -0.194 C  
HETATM    2  O   UNL     1      -9.332   6.987  66.806  1.00  0.00    -0.145 OA 
ENDROOT
BRANCH   2   3
HETATM    3  C   UNL     1      -8.571   6.119  67.545  1.00  0.00    -0.106 A  
HETATM    4  C   UNL     1      -8.996   4.791  67.581  1.00  0.00    -0.110 A  
HETATM    5  O   UNL     1     -10.120   4.407  66.904  1.00  0.00    -0.209 OA 
HETATM    6  C   UNL     1      -8.317   3.832  68.329  1.00  0.00    -0.102 A  
HETATM    7  C   UNL     1      -7.192   4.213  69.061  1.00  0.00    -0.054 A  
HETATM    8  H   UNL     1     -10.409   3.502  66.928  1.00  0.00     0.000 HD 
HETATM    9  C   UNL     1      -6.732   5.535  69.024  1.00  0.00    -0.053 A  
HETATM   10  C   UNL     1      -7.417   6.480  68.240  1.00  0.00    -0.095 A  
BRANCH   9  11
HETATM   11  C   UNL     1      -5.572   5.990  69.870  1.00  0.00    -0.013 C  
BRANCH  11  12
HETATM   12  N   UNL     1      -5.910   7.125  70.676  1.00  0.00    -0.027 N  
HETATM   13  C   UNL     1      -6.145   7.008  72.026  1.00  0.00    -0.038 C  
HETATM   14  H   UNL     1      -5.979   8.044  70.238  1.00  0.00     0.000 HD 
HETATM   15  O   UNL     1      -6.074   5.962  72.646  1.00  0.00    -0.039 OA 
BRANCH  13  16
HETATM   16  C   UNL     1      -6.586   8.308  72.641  1.00  0.00    -0.096 C  
BRANCH  16  17
HETATM   17  C   UNL     1      -8.053   8.318  73.048  1.00  0.00    -0.210 C  
BRANCH  17  18
HETATM   18  C   UNL     1      -9.015   8.466  71.860  1.00  0.00    -0.280 C  
BRANCH  18  19
HETATM   19  C   UNL     1     -10.507   8.536  72.211  1.00  0.00    -0.402 C  
BRANCH  19  20
HETATM   20  C   UNL     1     -11.363   7.515  71.511  1.00  0.00    -0.283 C  
HETATM   21  C   UNL     1     -11.383   6.192  71.755  1.00  0.00    -0.346 C  
HETATM   22  C   UNL     1     -10.670   5.480  72.878  1.00  0.00    -0.290 C  
HETATM   23  C   UNL     1      -9.294   4.979  72.446  1.00  0.00    -0.157 C  
HETATM   24  C   UNL     1     -11.528   4.325  73.390  1.00  0.00    -0.267 C  
ENDBRANCH  19  20
ENDBRANCH  18  19
ENDBRANCH  17  18
ENDBRANCH  16  17
ENDBRANCH  13  16
ENDBRANCH  11  12
ENDBRANCH   9  11
ENDBRANCH   2   3
TORSDOF 8
ENDMDL
MODEL      376
REMARK 921   NORMALIZED FREE ENERGY PREDICTED BY IDOCK:   -2.45 KCAL/MOL
REMARK 922        TOTAL FREE ENERGY PREDICTED BY IDOCK:   -4.81 KCAL/MOL
REMARK 923 INTER-LIGAND FREE ENERGY PREDICTED BY IDOCK:   -4.70 KCAL/MOL
REMARK 924 INTRA-LIGAND FREE ENERGY PREDICTED BY IDOCK:   -0.11 KCAL/MOL
REMARK 927      BINDING AFFINITY PREDICTED BY RF-SCORE:    0.00 PKD
ROOT
HETATM    1  C   UNL     1      -7.279  19.642  67.570  1.00  0.00    -0.232 C  
HETATM    2  O   UNL     1      -7.683  18.915  68.732  1.00  0.00    -0.329 OA 
ENDROOT
BRANCH   2   3
HETATM    3  C   UNL     1      -8.093  17.633  68.475  1.00  0.00    -0.283 A  
HETATM    4  C   UNL     1      -7.132  16.760  67.965  1.00  0.00    -0.152 A  
HETATM    5  O   UNL     1      -5.854  17.193  67.741  1.00  0.00    -0.117 OA 
HETATM    6  C   UNL     1      -7.449  15.444  67.637  1.00  0.00    -0.195 A  
HETATM    7  C   UNL     1      -8.757  14.995  67.819  1.00  0.00    -0.167 A  
HETATM    8  H   UNL     1      -5.200  16.598  67.394  1.00  0.00     0.000 HD 
HETATM    9  C   UNL     1      -9.735  15.845  68.350  1.00  0.00    -0.214 A  
HETATM   10  C   UNL     1      -9.386  17.161  68.700  1.00  0.00    -0.269 A  
BRANCH   9  11
HETATM   11  C   UNL     1     -11.171  15.411  68.477  1.00  0.00    -0.318 C  
BRANCH  11  12
HETATM   12  N   UNL     1     -11.421  14.179  67.790  1.00  0.00    -0.306 N  
HETATM   13  C   UNL     1     -11.526  12.985  68.465  1.00  0.00    -0.304 C  
HETATM   14  H   UNL     1     -11.524  14.187  66.776  1.00  0.00     0.000 HD 
HETATM   15  O   UNL     1     -11.434  12.870  69.673  1.00  0.00    -0.250 OA 
BRANCH  13  16
HETATM   16  C   UNL     1     -11.681  11.816  67.530  1.00  0.00    -0.312 C  
BRANCH  16  17
HETATM   17  C   UNL     1     -10.926  10.574  67.984  1.00  0.00    -0.345 C  
BRANCH  17  18
HETATM   18  C   UNL     1     -10.896   9.458  66.929  1.00  0.00    -0.055 C  
BRANCH  18  19
HETATM   19  C   UNL     1      -9.654   9.423  66.028  1.00  0.00    -0.328 C  
BRANCH  19  20
HETATM   20  C   UNL     1      -8.425   8.845  66.679  1.00  0.00    -0.122 C  
HETATM   21  C   UNL     1      -7.889   7.636  66.434  1.00  0.00    -0.094 C  
HETATM   22  C   UNL     1      -8.314   6.674  65.353  1.00  0.00    -0.130 C  
HETATM   23  C   UNL     1      -9.350   5.673  65.861  1.00  0.00    -0.119 C  
HETATM   24  C   UNL     1      -7.092   5.947  64.793  1.00  0.00    -0.060 C  
ENDBRANCH  19  20
ENDBRANCH  18  19
ENDBRANCH  17  18
ENDBRANCH  16  17
ENDBRANCH  13  16
ENDBRANCH  11  12
ENDBRANCH   9  11
ENDBRANCH   2   3
TORSDOF 8
ENDMDL
MODEL      377
REMARK 921   NORMALIZED FREE ENERGY PREDICTED BY IDOCK:   -2.22 KCAL/MOL
REMARK 922        TOTAL FREE ENERGY PREDICTED BY IDOCK:   -4.47 KCAL/MOL
REMARK 923 INTER-LIGAND FREE ENERGY PREDICTED BY IDOCK:   -3.14 KCAL/MOL
REMARK 924 INTRA-LIGAND FREE ENERGY PREDICTED BY IDOCK:   -1.33 KCAL/MOL
REMARK 927      BINDING AFFINITY PREDICTED BY RF-SCORE:    0.00 PKD
ROOT
HETATM    1  C   UNL     1      -8.865   9.520  64.333  1.00  0.00    -0.216 C  
HETATM    2  O   UNL     1      -7.997   8.386  64.370  1.00  0.00    -0.134 OA 
ENDROOT
BRANCH   2   3
HETATM    3  C   UNL     1      -8.178   7.578  65.462  1.00  0.00    -0.135 A  
HETATM    4  C   UNL     1      -8.498   6.244  65.206  1.00  0.00    -0.111 A  
HETATM    5  O   UNL     1      -8.621   5.798  63.920  1.00  0.00    -0.327 OA 
HETATM    6  C   UNL     1      -8.736   5.344  66.242  1.00  0.00    -0.125 A  
HETATM    7  C   UNL     1      -8.657   5.791  67.561  1.00  0.00    -0.105 A  
HETATM    8  H   UNL     1      -8.839   4.890  63.746  1.00  0.00     0.000 HD 
HETATM    9  C   UNL     1      -8.315   7.119  67.845  1.00  0.00    -0.118 A  
HETATM   10  C   UNL     1      -8.052   8.003  66.784  1.00  0.00    -0.107 A  
BRANCH   9  11
HETATM   11  C   UNL     1      -8.305   7.646  69.255  1.00  0.00    -0.134 C  
BRANCH  11  12
HETATM   12  N   UNL     1      -7.580   8.877  69.362  1.00  0.00    -0.079 N  
HETATM   13  C   UNL     1      -6.245   8.903  69.692  1.00  0.00    -0.039 C  
HETATM   14  H   UNL     1      -8.066   9.757  69.188  1.00  0.00     0.000 HD 
HETATM   15  O   UNL     1      -5.572   7.911  69.904  1.00  0.00    -0.023 OA 
BRANCH  13  16
HETATM   16  C   UNL     1      -5.726  10.307  69.849  1.00  0.00    -0.047 C  
BRANCH  16  17
HETATM   17  C   UNL     1      -5.165  10.892  68.560  1.00  0.00    -0.040 C  
BRANCH  17  18
HETATM   18  C   UNL     1      -5.943  12.117  68.056  1.00  0.00    -0.062 C  
BRANCH  18  19
HETATM   19  C   UNL     1      -7.435  12.155  68.411  1.00  0.00    -0.114 C  
BRANCH  19  20
HETATM   20  C   UNL     1      -8.344  11.583  67.356  1.00  0.00    -0.148 C  
HETATM   21  C   UNL     1      -9.672  11.401  67.463  1.00  0.00    -0.191 C  
HETATM   22  C   UNL     1     -10.549  11.871  68.598  1.00  0.00    -0.259 C  
HETATM   23  C   UNL     1     -10.713  10.794  69.668  1.00  0.00    -0.261 C  
HETATM   24  C   UNL     1     -11.909  12.308  68.059  1.00  0.00    -0.368 C  
ENDBRANCH  19  20
ENDBRANCH  18  19
ENDBRANCH  17  18
ENDBRANCH  16  17
ENDBRANCH  13  16
ENDBRANCH  11  12
ENDBRANCH   9  11
ENDBRANCH   2   3
TORSDOF 8
ENDMDL
MODEL      378
REMARK 921   NORMALIZED FREE ENERGY PREDICTED BY IDOCK:   -2.17 KCAL/MOL
REMARK 922        TOTAL FREE ENERGY PREDICTED BY IDOCK:   -4.40 KCAL/MOL
REMARK 923 INTER-LIGAND FREE ENERGY PREDICTED BY IDOCK:   -3.75 KCAL/MOL
REMARK 924 INTRA-LIGAND FREE ENERGY PREDICTED BY IDOCK:   -0.65 KCAL/MOL
REMARK 927      BINDING AFFINITY PREDICTED BY RF-SCORE:    0.00 PKD
ROOT
HETATM    1  C   UNL     1      -6.590  15.985  69.853  1.00  0.00    -0.079 C  
HETATM    2  O   UNL     1      -7.729  16.631  69.282  1.00  0.00    -0.224 OA 
ENDROOT
BRANCH   2   3
HETATM    3  C   UNL     1      -8.341  15.912  68.288  1.00  0.00    -0.165 A  
HETATM    4  C   UNL     1      -9.206  16.616  67.450  1.00  0.00    -0.213 A  
HETATM    5  O   UNL     1      -9.415  17.954  67.639  1.00  0.00    -0.255 OA 
HETATM    6  C   UNL     1      -9.906  15.978  66.429  1.00  0.00    -0.308 A  
HETATM    7  C   UNL     1      -9.739  14.604  66.248  1.00  0.00    -0.329 A  
HETATM    8  H   UNL     1     -10.003  18.433  67.068  1.00  0.00     0.000 HD 
HETATM    9  C   UNL     1      -8.859  13.879  67.061  1.00  0.00    -0.231 A  
HETATM   10  C   UNL     1      -8.143  14.549  68.067  1.00  0.00    -0.139 A  
BRANCH   9  11
HETATM   11  C   UNL     1      -8.726  12.384  66.940  1.00  0.00    -0.191 C  
BRANCH  11  12
HETATM   12  N   UNL     1      -7.825  11.847  67.916  1.00  0.00    -0.128 N  
HETATM   13  C   UNL     1      -6.506  11.594  67.620  1.00  0.00    -0.075 C  
HETATM   14  H   UNL     1      -8.171  11.647  68.855  1.00  0.00     0.000 HD 
HETATM   15  O   UNL     1      -5.993  11.810  66.538  1.00  0.00    -0.165 OA 
BRANCH  13  16
HETATM   16  C   UNL     1      -5.784  10.934  68.764  1.00  0.00    -0.040 C  
BRANCH  16  17
HETATM   17  C   UNL     1      -6.567   9.791  69.395  1.00  0.00    -0.049 C  
BRANCH  17  18
HETATM   18  C   UNL     1      -6.640   8.538  68.508  1.00  0.00    -0.059 C  
BRANCH  18  19
HETATM   19  C   UNL     1      -7.452   7.365  69.074  1.00  0.00    -0.100 C  
BRANCH  19  20
HETATM   20  C   UNL     1      -7.708   7.438  70.555  1.00  0.00    -0.096 C  
HETATM   21  C   UNL     1      -8.843   7.086  71.185  1.00  0.00    -0.141 C  
HETATM   22  C   UNL     1     -10.036   6.403  70.560  1.00  0.00    -0.214 C  
HETATM   23  C   UNL     1     -11.079   7.412  70.084  1.00  0.00    -0.265 C  
HETATM   24  C   UNL     1     -10.651   5.419  71.552  1.00  0.00    -0.285 C  
ENDBRANCH  19  20
ENDBRANCH  18  19
ENDBRANCH  17  18
ENDBRANCH  16  17
ENDBRANCH  13  16
ENDBRANCH  11  12
ENDBRANCH   9  11
ENDBRANCH   2   3
TORSDOF 8
ENDMDL
MODEL      379
REMARK 921   NORMALIZED FREE ENERGY PREDICTED BY IDOCK:   -2.08 KCAL/MOL
REMARK 922        TOTAL FREE ENERGY PREDICTED BY IDOCK:   -4.27 KCAL/MOL
REMARK 923 INTER-LIGAND FREE ENERGY PREDICTED BY IDOCK:   -3.91 KCAL/MOL
REMARK 924 INTRA-LIGAND FREE ENERGY PREDICTED BY IDOCK:   -0.36 KCAL/MOL
REMARK 927      BINDING AFFINITY PREDICTED BY RF-SCORE:    0.00 PKD
ROOT
HETATM    1  C   UNL     1      -8.501   9.602  62.896  1.00  0.00    -0.181 C  
HETATM    2  O   UNL     1      -7.351   9.774  63.727  1.00  0.00    -0.119 OA 
ENDROOT
BRANCH   2   3
HETATM    3  C   UNL     1      -7.633   9.836  65.067  1.00  0.00    -0.127 A  
HETATM    4  C   UNL     1      -6.563  10.112  65.918  1.00  0.00    -0.105 A  
HETATM    5  O   UNL     1      -5.307  10.302  65.410  1.00  0.00    -0.061 OA 
HETATM    6  C   UNL     1      -6.730  10.165  67.300  1.00  0.00    -0.073 A  
HETATM    7  C   UNL     1      -7.995   9.931  67.840  1.00  0.00    -0.104 A  
HETATM    8  H   UNL     1      -4.579  10.490  65.990  1.00  0.00     0.000 HD 
HETATM    9  C   UNL     1      -9.090   9.675  67.006  1.00  0.00    -0.154 A  
HETATM   10  C   UNL     1      -8.903   9.653  65.613  1.00  0.00    -0.189 A  
BRANCH   9  11
HETATM   11  C   UNL     1     -10.446   9.337  67.567  1.00  0.00    -0.274 C  
BRANCH  11  12
HETATM   12  N   UNL     1     -10.353   8.474  68.708  1.00  0.00    -0.217 N  
HETATM   13  C   UNL     1     -10.872   8.834  69.929  1.00  0.00    -0.206 C  
HETATM   14  H   UNL     1      -9.891   7.570  68.611  1.00  0.00     0.000 HD 
HETATM   15  O   UNL     1     -11.454   9.881  70.145  1.00  0.00    -0.250 OA 
BRANCH  13  16
HETATM   16  C   UNL     1     -10.563   7.822  70.999  1.00  0.00    -0.226 C  
BRANCH  16  17
HETATM   17  C   UNL     1     -10.671   8.382  72.411  1.00  0.00    -0.405 C  
BRANCH  17  18
HETATM   18  C   UNL     1      -9.914   7.550  73.457  1.00  0.00    -0.371 C  
BRANCH  18  19
HETATM   19  C   UNL     1      -9.335   6.219  72.962  1.00  0.00    -0.140 C  
BRANCH  19  20
HETATM   20  C   UNL     1     -10.358   5.141  72.723  1.00  0.00    -0.242 C  
HETATM   21  C   UNL     1     -10.105   3.867  72.374  1.00  0.00    -0.237 C  
HETATM   22  C   UNL     1      -8.747   3.215  72.299  1.00  0.00    -0.101 C  
HETATM   23  C   UNL     1      -8.155   3.301  70.894  1.00  0.00    -0.062 C  
HETATM   24  C   UNL     1      -8.841   1.760  72.755  1.00  0.00    -0.069 C  
ENDBRANCH  19  20
ENDBRANCH  18  19
ENDBRANCH  17  18
ENDBRANCH  16  17
ENDBRANCH  13  16
ENDBRANCH  11  12
ENDBRANCH   9  11
ENDBRANCH   2   3
TORSDOF 8
ENDMDL
MODEL      380
REMARK 921   NORMALIZED FREE ENERGY PREDICTED BY IDOCK:   -1.92 KCAL/MOL
REMARK 922        TOTAL FREE ENERGY PREDICTED BY IDOCK:   -4.04 KCAL/MOL
REMARK 923 INTER-LIGAND FREE ENERGY PREDICTED BY IDOCK:   -2.99 KCAL/MOL
REMARK 924 INTRA-LIGAND FREE ENERGY PREDICTED BY IDOCK:   -1.05 KCAL/MOL
REMARK 927      BINDING AFFINITY PREDICTED BY RF-SCORE:    0.00 PKD
ROOT
HETATM    1  C   UNL     1      -6.832  10.153  68.891  1.00  0.00    -0.054 C  
HETATM    2  O   UNL     1      -8.212  10.216  69.256  1.00  0.00    -0.130 OA 
ENDROOT
BRANCH   2   3
HETATM    3  C   UNL     1      -8.777   8.997  69.525  1.00  0.00    -0.144 A  
HETATM    4  C   UNL     1      -9.982   9.008  70.227  1.00  0.00    -0.195 A  
HETATM    5  O   UNL     1     -10.545  10.192  70.615  1.00  0.00    -0.382 OA 
HETATM    6  C   UNL     1     -10.625   7.825  70.583  1.00  0.00    -0.222 A  
HETATM    7  C   UNL     1     -10.045   6.605  70.233  1.00  0.00    -0.201 A  
HETATM    8  H   UNL     1     -11.366  10.200  71.092  1.00  0.00     0.000 HD 
HETATM    9  C   UNL     1      -8.847   6.567  69.509  1.00  0.00    -0.138 A  
HETATM   10  C   UNL     1      -8.230   7.774  69.137  1.00  0.00    -0.129 A  
BRANCH   9  11
HETATM   11  C   UNL     1      -8.158   5.266  69.194  1.00  0.00    -0.089 C  
BRANCH  11  12
HETATM   12  N   UNL     1      -8.222   4.952  67.797  1.00  0.00    -0.101 N  
HETATM   13  C   UNL     1      -8.954   3.886  67.329  1.00  0.00    -0.134 C  
HETATM   14  H   UNL     1      -7.711   5.534  67.133  1.00  0.00     0.000 HD 
HETATM   15  O   UNL     1      -9.609   3.142  68.036  1.00  0.00    -0.185 OA 
BRANCH  13  16
HETATM   16  C   UNL     1      -8.786   3.688  65.847  1.00  0.00    -0.125 C  
BRANCH  16  17
HETATM   17  C   UNL     1      -8.463   4.973  65.098  1.00  0.00    -0.143 C  
BRANCH  17  18
HETATM   18  C   UNL     1      -7.074   4.965  64.442  1.00  0.00    -0.050 C  
BRANCH  18  19
HETATM   19  C   UNL     1      -6.920   5.837  63.189  1.00  0.00    -0.044 C  
BRANCH  19  20
HETATM   20  C   UNL     1      -8.018   6.848  62.993  1.00  0.00    -0.081 C  
HETATM   21  C   UNL     1      -7.924   8.173  63.200  1.00  0.00    -0.151 C  
HETATM   22  C   UNL     1      -6.666   8.941  63.523  1.00  0.00    -0.089 C  
HETATM   23  C   UNL     1      -6.466   9.090  65.029  1.00  0.00    -0.065 C  
HETATM   24  C   UNL     1      -6.701  10.308  62.845  1.00  0.00    -0.135 C  
ENDBRANCH  19  20
ENDBRANCH  18  19
ENDBRANCH  17  18
ENDBRANCH  16  17
ENDBRANCH  13  16
ENDBRANCH  11  12
ENDBRANCH   9  11
ENDBRANCH   2   3
TORSDOF 8
ENDMDL
MODEL      381
REMARK 921   NORMALIZED FREE ENERGY PREDICTED BY IDOCK:   -1.86 KCAL/MOL
REMARK 922        TOTAL FREE ENERGY PREDICTED BY IDOCK:   -3.95 KCAL/MOL
REMARK 923 INTER-LIGAND FREE ENERGY PREDICTED BY IDOCK:   -2.48 KCAL/MOL
REMARK 924 INTRA-LIGAND FREE ENERGY PREDICTED BY IDOCK:   -1.47 KCAL/MOL
REMARK 927      BINDING AFFINITY PREDICTED BY RF-SCORE:    0.00 PKD
ROOT
HETATM    1  C   UNL     1      -9.582   3.828  70.792  1.00  0.00    -0.179 C  
HETATM    2  O   UNL     1     -10.371   4.644  69.924  1.00  0.00    -0.195 OA 
ENDROOT
BRANCH   2   3
HETATM    3  C   UNL     1      -9.814   5.864  69.643  1.00  0.00    -0.167 A  
HETATM    4  C   UNL     1     -10.438   6.980  70.201  1.00  0.00    -0.214 A  
HETATM    5  O   UNL     1     -11.550   6.830  70.982  1.00  0.00    -0.300 OA 
HETATM    6  C   UNL     1      -9.976   8.270  69.953  1.00  0.00    -0.190 A  
HETATM    7  C   UNL     1      -8.867   8.446  69.123  1.00  0.00    -0.142 A  
HETATM    8  H   UNL     1     -11.975   7.590  71.362  1.00  0.00     0.000 HD 
HETATM    9  C   UNL     1      -8.209   7.341  68.569  1.00  0.00    -0.125 A  
HETATM   10  C   UNL     1      -8.677   6.047  68.856  1.00  0.00    -0.122 A  
BRANCH   9  11
HETATM   11  C   UNL     1      -7.064   7.508  67.605  1.00  0.00    -0.085 C  
BRANCH  11  12
HETATM   12  N   UNL     1      -7.330   8.523  66.629  1.00  0.00    -0.081 N  
HETATM   13  C   UNL     1      -6.509   9.615  66.481  1.00  0.00    -0.070 C  
HETATM   14  H   UNL     1      -8.149   8.432  66.029  1.00  0.00     0.000 HD 
HETATM   15  O   UNL     1      -5.501   9.809  67.136  1.00  0.00    -0.042 OA 
BRANCH  13  16
HETATM   16  C   UNL     1      -7.043  10.596  65.473  1.00  0.00    -0.048 C  
BRANCH  16  17
HETATM   17  C   UNL     1      -8.539  10.455  65.227  1.00  0.00    -0.184 C  
BRANCH  17  18
HETATM   18  C   UNL     1      -9.351  11.678  65.681  1.00  0.00    -0.195 C  
BRANCH  18  19
HETATM   19  C   UNL     1      -9.093  12.157  67.116  1.00  0.00    -0.189 C  
BRANCH  19  20
HETATM   20  C   UNL     1     -10.115  13.128  67.644  1.00  0.00    -0.221 C  
HETATM   21  C   UNL     1     -11.186  12.823  68.399  1.00  0.00    -0.313 C  
HETATM   22  C   UNL     1     -11.500  11.475  69.000  1.00  0.00    -0.355 C  
HETATM   23  C   UNL     1     -12.402  10.645  68.088  1.00  0.00     1.400 C  
HETATM   24  C   UNL     1     -12.141  11.654  70.374  1.00  0.00    -0.462 C  
ENDBRANCH  19  20
ENDBRANCH  18  19
ENDBRANCH  17  18
ENDBRANCH  16  17
ENDBRANCH  13  16
ENDBRANCH  11  12
ENDBRANCH   9  11
ENDBRANCH   2   3
TORSDOF 8
ENDMDL
MODEL      382
REMARK 921   NORMALIZED FREE ENERGY PREDICTED BY IDOCK:   -1.07 KCAL/MOL
REMARK 922        TOTAL FREE ENERGY PREDICTED BY IDOCK:   -2.79 KCAL/MOL
REMARK 923 INTER-LIGAND FREE ENERGY PREDICTED BY IDOCK:   -3.17 KCAL/MOL
REMARK 924 INTRA-LIGAND FREE ENERGY PREDICTED BY IDOCK:    0.38 KCAL/MOL
REMARK 927      BINDING AFFINITY PREDICTED BY RF-SCORE:    0.00 PKD
ROOT
HETATM    1  C   UNL     1      -7.973   3.913  70.310  1.00  0.00    -0.050 C  
HETATM    2  O   UNL     1      -8.158   5.209  70.881  1.00  0.00    -0.100 OA 
ENDROOT
BRANCH   2   3
HETATM    3  C   UNL     1      -8.649   6.142  70.005  1.00  0.00    -0.136 A  
HETATM    4  C   UNL     1      -9.801   6.823  70.399  1.00  0.00    -0.175 A  
HETATM    5  O   UNL     1     -10.387   6.549  71.604  1.00  0.00    -0.204 OA 
HETATM    6  C   UNL     1     -10.404   7.767  69.573  1.00  0.00    -0.219 A  
HETATM    7  C   UNL     1      -9.845   8.030  68.322  1.00  0.00    -0.190 A  
HETATM    8  H   UNL     1     -11.171   7.013  71.873  1.00  0.00     0.000 HD 
HETATM    9  C   UNL     1      -8.676   7.377  67.911  1.00  0.00    -0.123 A  
HETATM   10  C   UNL     1      -8.069   6.448  68.774  1.00  0.00    -0.114 A  
BRANCH   9  11
HETATM   11  C   UNL     1      -8.101   7.581  66.535  1.00  0.00    -0.120 C  
BRANCH  11  12
HETATM   12  N   UNL     1      -6.946   8.428  66.558  1.00  0.00    -0.070 N  
HETATM   13  C   UNL     1      -6.970   9.667  67.154  1.00  0.00    -0.085 C  
HETATM   14  H   UNL     1      -6.083   8.103  66.121  1.00  0.00     0.000 HD 
HETATM   15  O   UNL     1      -7.942  10.139  67.714  1.00  0.00    -0.101 OA 
BRANCH  13  16
HETATM   16  C   UNL     1      -5.679  10.416  66.960  1.00  0.00    -0.046 C  
BRANCH  16  17
HETATM   17  C   UNL     1      -5.357  11.370  68.102  1.00  0.00    -0.042 C  
BRANCH  17  18
HETATM   18  C   UNL     1      -5.710  12.833  67.793  1.00  0.00    -0.131 C  
BRANCH  18  19
HETATM   19  C   UNL     1      -7.206  13.174  67.791  1.00  0.00    -0.147 C  
BRANCH  19  20
HETATM   20  C   UNL     1      -7.567  14.413  68.567  1.00  0.00    -0.125 C  
HETATM   21  C   UNL     1      -8.797  14.942  68.693  1.00  0.00    -0.179 C  
HETATM   22  C   UNL     1     -10.088  14.326  68.215  1.00  0.00    -0.238 C  
HETATM   23  C   UNL     1     -10.458  14.803  66.812  1.00  0.00    -0.282 C  
HETATM   24  C   UNL     1     -11.210  14.636  69.203  1.00  0.00    -0.291 C  
ENDBRANCH  19  20
ENDBRANCH  18  19
ENDBRANCH  17  18
ENDBRANCH  16  17
ENDBRANCH  13  16
ENDBRANCH  11  12
ENDBRANCH   9  11
ENDBRANCH   2   3
TORSDOF 8
ENDMDL
MODEL      383
REMARK 921   NORMALIZED FREE ENERGY PREDICTED BY IDOCK:   -0.35 KCAL/MOL
REMARK 922        TOTAL FREE ENERGY PREDICTED BY IDOCK:   -1.73 KCAL/MOL
REMARK 923 INTER-LIGAND FREE ENERGY PREDICTED BY IDOCK:   -1.87 KCAL/MOL
REMARK 924 INTRA-LIGAND FREE ENERGY PREDICTED BY IDOCK:    0.14 KCAL/MOL
REMARK 927      BINDING AFFINITY PREDICTED BY RF-SCORE:    0.00 PKD
ROOT
HETATM    1  C   UNL     1      -8.633   3.472  71.008  1.00  0.00    -0.072 C  
HETATM    2  O   UNL     1      -8.902   4.352  69.915  1.00  0.00    -0.078 OA 
ENDROOT
BRANCH   2   3
HETATM    3  C   UNL     1      -8.947   5.677  70.261  1.00  0.00    -0.139 A  
HETATM    4  C   UNL     1     -10.174   6.322  70.107  1.00  0.00    -0.189 A  
HETATM    5  O   UNL     1     -11.258   5.638  69.630  1.00  0.00    -0.267 OA 
HETATM    6  C   UNL     1     -10.324   7.676  70.397  1.00  0.00    -0.214 A  
HETATM    7  C   UNL     1      -9.219   8.401  70.845  1.00  0.00    -0.192 A  
HETATM    8  H   UNL     1     -12.094   6.077  69.526  1.00  0.00     0.000 HD 
HETATM    9  C   UNL     1      -7.981   7.772  71.029  1.00  0.00    -0.090 A  
HETATM   10  C   UNL     1      -7.860   6.398  70.756  1.00  0.00    -0.106 A  
BRANCH   9  11
HETATM   11  C   UNL     1      -6.755   8.548  71.430  1.00  0.00    -0.069 C  
BRANCH  11  12
HETATM   12  N   UNL     1      -6.261   9.360  70.357  1.00  0.00    -0.054 N  
HETATM   13  C   UNL     1      -6.972  10.434  69.878  1.00  0.00    -0.149 C  
HETATM   14  H   UNL     1      -5.358   9.135  69.939  1.00  0.00     0.000 HD 
HETATM   15  O   UNL     1      -8.049  10.795  70.317  1.00  0.00     0.384 OA 
BRANCH  13  16
HETATM   16  C   UNL     1      -6.309  11.068  68.685  1.00  0.00    -0.047 C  
BRANCH  16  17
HETATM   17  C   UNL     1      -5.282  10.167  68.014  1.00  0.00    -0.035 C  
BRANCH  17  18
HETATM   18  C   UNL     1      -5.909   9.060  67.153  1.00  0.00    -0.046 C  
BRANCH  18  19
HETATM   19  C   UNL     1      -7.441   9.074  67.059  1.00  0.00    -0.087 C  
BRANCH  19  20
HETATM   20  C   UNL     1      -8.085   7.717  67.165  1.00  0.00    -0.118 C  
HETATM   21  C   UNL     1      -7.913   6.687  66.318  1.00  0.00    -0.108 C  
HETATM   22  C   UNL     1      -6.926   6.622  65.179  1.00  0.00    -0.051 C  
HETATM   23  C   UNL     1      -7.549   7.085  63.864  1.00  0.00    -0.109 C  
HETATM   24  C   UNL     1      -6.376   5.204  65.046  1.00  0.00    -0.035 C  
ENDBRANCH  19  20
ENDBRANCH  18  19
ENDBRANCH  17  18
ENDBRANCH  16  17
ENDBRANCH  13  16
ENDBRANCH  11  12
ENDBRANCH   9  11
ENDBRANCH   2   3
TORSDOF 8
ENDMDL
MODEL      384
REMARK 921   NORMALIZED FREE ENERGY PREDICTED BY IDOCK:    0.14 KCAL/MOL
REMARK 922        TOTAL FREE ENERGY PREDICTED BY IDOCK:   -1.01 KCAL/MOL
REMARK 923 INTER-LIGAND FREE ENERGY PREDICTED BY IDOCK:   -2.02 KCAL/MOL
REMARK 924 INTRA-LIGAND FREE ENERGY PREDICTED BY IDOCK:    1.02 KCAL/MOL
REMARK 927      BINDING AFFINITY PREDICTED BY RF-SCORE:    0.00 PKD
ROOT
HETATM    1  C   UNL     1     -13.575  12.220  64.645  1.00  0.00     1.730 C  
HETATM    2  O   UNL     1     -13.308  13.180  65.669  1.00  0.00    -0.217 OA 
ENDROOT
BRANCH   2   3
HETATM    3  C   UNL     1     -12.004  13.202  66.089  1.00  0.00    -0.422 A  
HETATM    4  C   UNL     1     -11.531  12.053  66.723  1.00  0.00    -0.345 A  
HETATM    5  O   UNL     1     -12.354  10.976  66.903  1.00  0.00     1.021 OA 
HETATM    6  C   UNL     1     -10.232  11.980  67.219  1.00  0.00    -0.221 A  
HETATM    7  C   UNL     1      -9.390  13.085  67.083  1.00  0.00    -0.230 A  
HETATM    8  H   UNL     1     -12.032  10.193  67.334  1.00  0.00     0.000 HD 
HETATM    9  C   UNL     1      -9.833  14.242  66.431  1.00  0.00    -0.309 A  
HETATM   10  C   UNL     1     -11.139  14.283  65.914  1.00  0.00    -0.310 A  
BRANCH   9  11
HETATM   11  C   UNL     1      -8.974  15.476  66.345  1.00  0.00    -0.324 C  
BRANCH  11  12
HETATM   12  N   UNL     1      -9.660  16.563  65.713  1.00  0.00    -0.230 N  
HETATM   13  C   UNL     1     -10.493  17.400  66.418  1.00  0.00    -0.267 C  
HETATM   14  H   UNL     1      -9.527  16.721  64.714  1.00  0.00     0.000 HD 
HETATM   15  O   UNL     1     -10.707  17.307  67.613  1.00  0.00    -0.359 OA 
BRANCH  13  16
HETATM   16  C   UNL     1     -11.183  18.397  65.527  1.00  0.00     0.912 C  
BRANCH  16  17
HETATM   17  C   UNL     1     -10.566  19.788  65.585  1.00  0.00    -0.456 C  
BRANCH  17  18
HETATM   18  C   UNL     1      -9.866  20.091  66.918  1.00  0.00    -0.571 C  
BRANCH  18  19
HETATM   19  C   UNL     1      -8.491  19.438  67.114  1.00  0.00    -0.317 C  
BRANCH  19  20
HETATM   20  C   UNL     1      -7.800  19.810  68.400  1.00  0.00    -0.329 C  
HETATM   21  C   UNL     1      -7.064  18.992  69.172  1.00  0.00    -0.330 C  
HETATM   22  C   UNL     1      -6.649  17.580  68.837  1.00  0.00    -0.226 C  
HETATM   23  C   UNL     1      -7.641  16.555  69.382  1.00  0.00    -0.061 C  
HETATM   24  C   UNL     1      -5.245  17.309  69.371  1.00  0.00    -0.162 C  
ENDBRANCH  19  20
ENDBRANCH  18  19
ENDBRANCH  17  18
ENDBRANCH  16  17
ENDBRANCH  13  16
ENDBRANCH  11  12
ENDBRANCH   9  11
ENDBRANCH   2   3
TORSDOF 8
ENDMDL
MODEL      385
REMARK 921   NORMALIZED FREE ENERGY PREDICTED BY IDOCK:    2.16 KCAL/MOL
REMARK 922        TOTAL FREE ENERGY PREDICTED BY IDOCK:    1.95 KCAL/MOL
REMARK 923 INTER-LIGAND FREE ENERGY PREDICTED BY IDOCK:    2.50 KCAL/MOL
REMARK 924 INTRA-LIGAND FREE ENERGY PREDICTED BY IDOCK:   -0.54 KCAL/MOL
REMARK 927      BINDING AFFINITY PREDICTED BY RF-SCORE:    0.00 PKD
ROOT
HETATM    1  C   UNL     1     -11.048  14.378  74.042  1.00  0.00     2.809 C  
HETATM    2  O   UNL     1     -10.976  15.127  72.828  1.00  0.00     0.082 OA 
ENDROOT
BRANCH   2   3
HETATM    3  C   UNL     1     -11.629  14.547  71.773  1.00  0.00     0.140 A  
HETATM    4  C   UNL     1     -12.245  15.411  70.867  1.00  0.00    -0.373 A  
HETATM    5  O   UNL     1     -12.183  16.765  71.053  1.00  0.00     0.089 OA 
HETATM    6  C   UNL     1     -12.965  14.928  69.777  1.00  0.00     0.209 A  
HETATM    7  C   UNL     1     -13.075  13.549  69.594  1.00  0.00     1.139 A  
HETATM    8  H   UNL     1     -12.602  17.353  70.436  1.00  0.00     0.000 HD 
HETATM    9  C   UNL     1     -12.447  12.660  70.476  1.00  0.00    -0.273 A  
HETATM   10  C   UNL     1     -11.703  13.171  71.553  1.00  0.00     1.477 A  
BRANCH   9  11
HETATM   11  C   UNL     1     -12.620  11.170  70.348  1.00  0.00    -0.246 C  
BRANCH  11  12
HETATM   12  N   UNL     1     -11.430  10.460  70.711  1.00  0.00    -0.343 N  
HETATM   13  C   UNL     1     -11.455   9.423  71.615  1.00  0.00    -0.393 C  
HETATM   14  H   UNL     1     -10.542  10.730  70.289  1.00  0.00     0.000 HD 
HETATM   15  O   UNL     1     -12.463   9.015  72.161  1.00  0.00    -0.364 OA 
BRANCH  13  16
HETATM   16  C   UNL     1     -10.077   8.902  71.920  1.00  0.00    -0.393 C  
BRANCH  16  17
HETATM   17  C   UNL     1      -9.030   9.325  70.898  1.00  0.00    -0.273 C  
BRANCH  17  18
HETATM   18  C   UNL     1      -7.754   8.472  70.941  1.00  0.00    -0.092 C  
BRANCH  18  19
HETATM   19  C   UNL     1      -6.597   8.953  70.055  1.00  0.00    -0.042 C  
BRANCH  19  20
HETATM   20  C   UNL     1      -7.026   9.641  68.787  1.00  0.00    -0.066 C  
HETATM   21  C   UNL     1      -7.778   9.108  67.808  1.00  0.00    -0.093 C  
HETATM   22  C   UNL     1      -8.474   7.770  67.844  1.00  0.00    -0.122 C  
HETATM   23  C   UNL     1      -7.609   6.666  67.240  1.00  0.00    -0.100 C  
HETATM   24  C   UNL     1      -9.816   7.860  67.121  1.00  0.00    -0.273 C  
ENDBRANCH  19  20
ENDBRANCH  18  19
ENDBRANCH  17  18
ENDBRANCH  16  17
ENDBRANCH  13  16
ENDBRANCH  11  12
ENDBRANCH   9  11
ENDBRANCH   2   3
TORSDOF 8
ENDMDL
MODEL      386
REMARK 921   NORMALIZED FREE ENERGY PREDICTED BY IDOCK:    3.50 KCAL/MOL
REMARK 922        TOTAL FREE ENERGY PREDICTED BY IDOCK:    3.92 KCAL/MOL
REMARK 923 INTER-LIGAND FREE ENERGY PREDICTED BY IDOCK:    1.96 KCAL/MOL
REMARK 924 INTRA-LIGAND FREE ENERGY PREDICTED BY IDOCK:    1.97 KCAL/MOL
REMARK 927      BINDING AFFINITY PREDICTED BY RF-SCORE:    0.00 PKD
ROOT
HETATM    1  C   UNL     1      -7.067  12.581  62.346  1.00  0.00     4.661 C  
HETATM    2  O   UNL     1      -6.693  11.203  62.394  1.00  0.00    -0.002 OA 
ENDROOT
BRANCH   2   3
HETATM    3  C   UNL     1      -7.013  10.576  63.569  1.00  0.00     0.080 A  
HETATM    4  C   UNL     1      -8.305  10.779  64.054  1.00  0.00     0.067 A  
HETATM    5  O   UNL     1      -9.183  11.573  63.368  1.00  0.00    -0.462 OA 
HETATM    6  C   UNL     1      -8.726  10.217  65.256  1.00  0.00    -0.180 A  
HETATM    7  C   UNL     1      -7.832   9.438  65.991  1.00  0.00    -0.099 A  
HETATM    8  H   UNL     1     -10.063  11.711  63.698  1.00  0.00     0.000 HD 
HETATM    9  C   UNL     1      -6.536   9.200  65.516  1.00  0.00    -0.068 A  
HETATM   10  C   UNL     1      -6.142   9.755  64.286  1.00  0.00    -0.113 A  
BRANCH   9  11
HETATM   11  C   UNL     1      -5.527   8.435  66.329  1.00  0.00    -0.035 C  
BRANCH  11  12
HETATM   12  N   UNL     1      -6.153   7.524  67.241  1.00  0.00    -0.046 N  
HETATM   13  C   UNL     1      -7.230   6.754  66.867  1.00  0.00    -0.081 C  
HETATM   14  H   UNL     1      -5.792   7.445  68.191  1.00  0.00     0.000 HD 
HETATM   15  O   UNL     1      -7.726   6.763  65.756  1.00  0.00    -0.087 OA 
BRANCH  13  16
HETATM   16  C   UNL     1      -7.785   5.958  68.017  1.00  0.00    -0.100 C  
BRANCH  16  17
HETATM   17  C   UNL     1      -8.818   6.718  68.837  1.00  0.00    -0.128 C  
BRANCH  17  18
HETATM   18  C   UNL     1     -10.178   6.008  68.915  1.00  0.00    -0.246 C  
BRANCH  18  19
HETATM   19  C   UNL     1     -10.979   6.237  70.204  1.00  0.00    -0.411 C  
BRANCH  19  20
HETATM   20  C   UNL     1     -10.472   7.365  71.063  1.00  0.00    -0.223 C  
HETATM   21  C   UNL     1      -9.681   7.246  72.145  1.00  0.00    -0.177 C  
HETATM   22  C   UNL     1      -9.016   5.982  72.631  1.00  0.00    -0.127 C  
HETATM   23  C   UNL     1      -9.871   5.255  73.666  1.00  0.00    -0.171 C  
HETATM   24  C   UNL     1      -7.637   6.306  73.203  1.00  0.00    -0.096 C  
ENDBRANCH  19  20
ENDBRANCH  18  19
ENDBRANCH  17  18
ENDBRANCH  16  17
ENDBRANCH  13  16
ENDBRANCH  11  12
ENDBRANCH   9  11
ENDBRANCH   2   3
TORSDOF 8
ENDMDL
MODEL      387
REMARK 921   NORMALIZED FREE ENERGY PREDICTED BY IDOCK:    3.67 KCAL/MOL
REMARK 922        TOTAL FREE ENERGY PREDICTED BY IDOCK:    4.17 KCAL/MOL
REMARK 923 INTER-LIGAND FREE ENERGY PREDICTED BY IDOCK:    4.86 KCAL/MOL
REMARK 924 INTRA-LIGAND FREE ENERGY PREDICTED BY IDOCK:   -0.69 KCAL/MOL
REMARK 927      BINDING AFFINITY PREDICTED BY RF-SCORE:    0.00 PKD
ROOT
HETATM    1  C   UNL     1     -10.697  14.381  74.245  1.00  0.00     5.041 C  
HETATM    2  O   UNL     1     -10.912  15.133  73.049  1.00  0.00     0.306 OA 
ENDROOT
BRANCH   2   3
HETATM    3  C   UNL     1     -11.917  14.647  72.255  1.00  0.00    -0.153 A  
HETATM    4  C   UNL     1     -12.723  15.592  71.619  1.00  0.00    -0.434 A  
HETATM    5  O   UNL     1     -12.497  16.928  71.802  1.00  0.00     0.415 OA 
HETATM    6  C   UNL     1     -13.795  15.208  70.817  1.00  0.00    -0.176 A  
HETATM    7  C   UNL     1     -14.068  13.850  70.652  1.00  0.00     1.156 A  
HETATM    8  H   UNL     1     -13.045  17.571  71.368  1.00  0.00     0.000 HD 
HETATM    9  C   UNL     1     -13.261  12.881  71.261  1.00  0.00    -0.160 A  
HETATM   10  C   UNL     1     -12.168  13.291  72.045  1.00  0.00     0.565 A  
BRANCH   9  11
HETATM   11  C   UNL     1     -13.584  11.414  71.168  1.00  0.00     0.762 C  
BRANCH  11  12
HETATM   12  N   UNL     1     -12.465  10.647  70.708  1.00  0.00    -0.354 N  
HETATM   13  C   UNL     1     -12.068   9.494  71.344  1.00  0.00    -0.378 C  
HETATM   14  H   UNL     1     -11.949  10.964  69.887  1.00  0.00     0.000 HD 
HETATM   15  O   UNL     1     -12.624   9.024  72.320  1.00  0.00    -0.380 OA 
BRANCH  13  16
HETATM   16  C   UNL     1     -10.810   8.921  70.750  1.00  0.00    -0.294 C  
BRANCH  16  17
HETATM   17  C   UNL     1     -10.129   9.855  69.759  1.00  0.00    -0.274 C  
BRANCH  17  18
HETATM   18  C   UNL     1     -10.438   9.520  68.292  1.00  0.00    -0.265 C  
BRANCH  18  19
HETATM   19  C   UNL     1      -9.290   8.887  67.495  1.00  0.00    -0.160 C  
BRANCH  19  20
HETATM   20  C   UNL     1      -8.603   7.742  68.191  1.00  0.00    -0.123 C  
HETATM   21  C   UNL     1      -7.530   7.830  68.998  1.00  0.00    -0.095 C  
HETATM   22  C   UNL     1      -6.889   9.102  69.495  1.00  0.00    -0.048 C  
HETATM   23  C   UNL     1      -5.748   9.553  68.586  1.00  0.00    -0.040 C  
HETATM   24  C   UNL     1      -6.394   8.910  70.927  1.00  0.00    -0.054 C  
ENDBRANCH  19  20
ENDBRANCH  18  19
ENDBRANCH  17  18
ENDBRANCH  16  17
ENDBRANCH  13  16
ENDBRANCH  11  12
ENDBRANCH   9  11
ENDBRANCH   2   3
TORSDOF 8
ENDMDL
