MODEL        1
REMARK 921   NORMALIZED FREE ENERGY PREDICTED BY IDOCK:   -7.43 KCAL/MOL
REMARK 922        TOTAL FREE ENERGY PREDICTED BY IDOCK:  -10.15 KCAL/MOL
REMARK 923 INTER-LIGAND FREE ENERGY PREDICTED BY IDOCK:   -9.60 KCAL/MOL
REMARK 924 INTRA-LIGAND FREE ENERGY PREDICTED BY IDOCK:   -0.55 KCAL/MOL
REMARK 927      BINDING AFFINITY PREDICTED BY RF-SCORE:    0.00 PKD
ROOT
HETATM    1  O   UNL     1      -6.968  21.258  65.974  1.00  0.00    -0.498 OA 
HETATM    2  C   UNL     1      -6.914  20.733  67.298  1.00  0.00    -0.358 C  
HETATM    3  H   UNL     1      -6.236  21.851  65.847  1.00  0.00     0.000 HD 
ENDROOT
BRANCH   2   4
HETATM    4  C   UNL     1      -8.093  19.779  67.502  1.00  0.00    -0.302 C  
BRANCH   4   5
HETATM    5  N   UNL     1      -8.524  19.033  66.302  1.00  0.00    -0.387 NA 
HETATM    6  C   UNL     1      -7.909  17.684  66.321  1.00  0.00    -0.273 C  
HETATM    7  C   UNL     1      -8.528  16.738  67.379  1.00  0.00    -0.189 C  
HETATM    8  N   UNL     1      -9.996  16.576  67.253  1.00  0.00    -0.258 NA 
HETATM    9  C   UNL     1     -10.611  17.917  67.249  1.00  0.00    -0.332 C  
HETATM   10  C   UNL     1      -9.995  18.880  66.208  1.00  0.00    -0.388 C  
BRANCH   8  11
HETATM   11  C   UNL     1     -10.395  15.807  66.055  1.00  0.00    -0.340 C  
BRANCH  11  12
HETATM   12  C   UNL     1     -11.486  14.802  66.437  1.00  0.00    -0.319 C  
BRANCH  12  13
HETATM   13  C   UNL     1     -11.907  14.726  67.868  1.00  0.00    -0.327 C  
HETATM   14  C   UNL     1     -11.851  13.673  68.733  1.00  0.00    -0.395 C  
HETATM   15  C   UNL     1     -12.406  13.945  70.131  1.00  0.00    -0.400 A  
HETATM   16  C   UNL     1     -12.717  15.246  70.597  1.00  0.00    -0.470 A  
HETATM   17  C   UNL     1     -13.268  15.489  71.861  1.00  0.00    -0.553 A  
HETATM   18  C   UNL     1     -13.493  14.438  72.726  1.00  0.00    -0.582 A  
HETATM   19  C   UNL     1     -13.170  13.151  72.317  1.00  0.00    -0.555 A  
HETATM   20  C   UNL     1     -12.638  12.895  71.033  1.00  0.00    -0.287 A  
HETATM   21  S   UNL     1     -12.333  11.181  70.715  1.00  0.00    -0.399 SA 
HETATM   22  C   UNL     1     -11.550  11.161  69.127  1.00  0.00    -0.324 A  
HETATM   23  C   UNL     1     -11.346  12.285  68.306  1.00  0.00    -0.339 A  
HETATM   24  C   UNL     1     -10.677  12.010  67.087  1.00  0.00    -0.277 A  
HETATM   25  C   UNL     1     -10.319  10.723  66.668  1.00  0.00    -0.241 A  
HETATM   26  C   UNL     1     -10.547   9.641  67.483  1.00  0.00    -0.339 A  
HETATM   27 CL   UNL     1      -9.613  10.495  65.112  1.00  0.00    -0.288 Cl 
HETATM   28  C   UNL     1     -11.143   9.864  68.715  1.00  0.00    -0.179 A  
ENDBRANCH  12  13
ENDBRANCH  11  12
ENDBRANCH   8  11
ENDBRANCH   4   5
ENDBRANCH   2   4
TORSDOF 5
ENDMDL
MODEL        2
REMARK 921   NORMALIZED FREE ENERGY PREDICTED BY IDOCK:   -7.27 KCAL/MOL
REMARK 922        TOTAL FREE ENERGY PREDICTED BY IDOCK:   -9.95 KCAL/MOL
REMARK 923 INTER-LIGAND FREE ENERGY PREDICTED BY IDOCK:   -9.48 KCAL/MOL
REMARK 924 INTRA-LIGAND FREE ENERGY PREDICTED BY IDOCK:   -0.47 KCAL/MOL
REMARK 927      BINDING AFFINITY PREDICTED BY RF-SCORE:    0.00 PKD
ROOT
HETATM    1  O   UNL     1      -6.743  21.118  64.181  1.00  0.00    -0.519 OA 
HETATM    2  C   UNL     1      -6.467  20.001  65.023  1.00  0.00    -0.289 C  
HETATM    3  H   UNL     1      -6.137  21.108  63.448  1.00  0.00     0.000 HD 
ENDROOT
BRANCH   2   4
HETATM    4  C   UNL     1      -7.442  20.016  66.203  1.00  0.00    -0.302 C  
BRANCH   4   5
HETATM    5  N   UNL     1      -7.395  18.830  67.082  1.00  0.00    -0.212 NA 
HETATM    6  C   UNL     1      -7.912  19.198  68.422  1.00  0.00    -0.341 C  
HETATM    7  C   UNL     1      -9.445  19.414  68.456  1.00  0.00    -0.389 C  
HETATM    8  N   UNL     1     -10.225  18.254  67.961  1.00  0.00    -0.366 NA 
HETATM    9  C   UNL     1      -9.722  17.896  66.621  1.00  0.00    -0.319 C  
HETATM   10  C   UNL     1      -8.190  17.691  66.567  1.00  0.00    -0.273 C  
BRANCH   8  11
HETATM   11  C   UNL     1     -10.178  17.091  68.873  1.00  0.00    -0.322 C  
BRANCH  11  12
HETATM   12  C   UNL     1     -11.384  16.186  68.605  1.00  0.00    -0.365 C  
BRANCH  12  13
HETATM   13  C   UNL     1     -11.134  14.829  68.034  1.00  0.00    -0.294 C  
HETATM   14  C   UNL     1     -11.504  13.606  68.513  1.00  0.00    -0.347 C  
HETATM   15  C   UNL     1     -11.045  12.410  67.678  1.00  0.00    -0.306 A  
HETATM   16  C   UNL     1     -10.504  12.542  66.375  1.00  0.00    -0.269 A  
HETATM   17  C   UNL     1     -10.041  11.450  65.630  1.00  0.00    -0.293 A  
HETATM   18  C   UNL     1     -10.138  10.175  66.148  1.00  0.00    -0.314 A  
HETATM   19  C   UNL     1     -10.693  10.003  67.409  1.00  0.00    -0.336 A  
HETATM   20  C   UNL     1     -11.138  11.102  68.178  1.00  0.00    -0.264 A  
HETATM   21  S   UNL     1     -11.777  10.652  69.765  1.00  0.00    -0.317 SA 
HETATM   22  C   UNL     1     -12.384  12.171  70.442  1.00  0.00    -0.233 A  
HETATM   23  C   UNL     1     -12.255  13.438  69.844  1.00  0.00    -0.337 A  
HETATM   24  C   UNL     1     -12.844  14.498  70.577  1.00  0.00    -0.361 A  
HETATM   25  C   UNL     1     -13.432  14.341  71.838  1.00  0.00    -0.401 A  
HETATM   26  C   UNL     1     -13.527  13.094  72.407  1.00  0.00    -0.643 A  
HETATM   27 CL   UNL     1     -14.013  15.723  72.690  1.00  0.00    -0.632 Cl 
HETATM   28  C   UNL     1     -13.023  12.012  71.701  1.00  0.00    -0.439 A  
ENDBRANCH  12  13
ENDBRANCH  11  12
ENDBRANCH   8  11
ENDBRANCH   4   5
ENDBRANCH   2   4
TORSDOF 5
ENDMDL
MODEL        3
REMARK 921   NORMALIZED FREE ENERGY PREDICTED BY IDOCK:   -7.27 KCAL/MOL
REMARK 922        TOTAL FREE ENERGY PREDICTED BY IDOCK:   -9.94 KCAL/MOL
REMARK 923 INTER-LIGAND FREE ENERGY PREDICTED BY IDOCK:   -9.29 KCAL/MOL
REMARK 924 INTRA-LIGAND FREE ENERGY PREDICTED BY IDOCK:   -0.65 KCAL/MOL
REMARK 927      BINDING AFFINITY PREDICTED BY RF-SCORE:    0.00 PKD
ROOT
HETATM    1  O   UNL     1     -11.607  16.380  63.705  1.00  0.00    -1.605 OA 
HETATM    2  C   UNL     1     -12.264  15.321  64.398  1.00  0.00    -0.210 C  
HETATM    3  H   UNL     1     -11.693  17.180  64.212  1.00  0.00     0.000 HD 
ENDROOT
BRANCH   2   4
HETATM    4  C   UNL     1     -12.126  14.034  63.582  1.00  0.00    -0.112 C  
BRANCH   4   5
HETATM    5  N   UNL     1     -12.450  12.786  64.303  1.00  0.00    -0.607 NA 
HETATM    6  C   UNL     1     -11.875  11.635  63.564  1.00  0.00    -0.260 C  
HETATM    7  C   UNL     1     -10.334  11.537  63.675  1.00  0.00    -0.417 C  
HETATM    8  N   UNL     1      -9.834  11.489  65.070  1.00  0.00    -0.252 NA 
HETATM    9  C   UNL     1     -10.393  12.642  65.802  1.00  0.00    -0.279 C  
HETATM   10  C   UNL     1     -11.931  12.763  65.691  1.00  0.00    -0.452 C  
BRANCH   8  11
HETATM   11  C   UNL     1     -10.153  10.220  65.758  1.00  0.00    -0.255 C  
BRANCH  11  12
HETATM   12  C   UNL     1      -9.595  10.259  67.183  1.00  0.00    -0.199 C  
BRANCH  12  13
HETATM   13  C   UNL     1      -9.851   9.088  68.074  1.00  0.00    -0.197 C  
HETATM   14  C   UNL     1     -10.602   9.011  69.210  1.00  0.00    -0.226 C  
HETATM   15  C   UNL     1     -10.615   7.644  69.894  1.00  0.00    -0.237 A  
HETATM   16  C   UNL     1     -10.111   6.471  69.280  1.00  0.00    -0.192 A  
HETATM   17  C   UNL     1     -10.082   5.228  69.926  1.00  0.00    -0.333 A  
HETATM   18  C   UNL     1     -10.594   5.104  71.201  1.00  0.00    -0.195 A  
HETATM   19  C   UNL     1     -11.127   6.225  71.822  1.00  0.00    -0.321 A  
HETATM   20  C   UNL     1     -11.137   7.488  71.188  1.00  0.00    -0.251 A  
HETATM   21  S   UNL     1     -11.833   8.780  72.177  1.00  0.00    -0.345 SA 
HETATM   22  C   UNL     1     -11.852  10.191  71.107  1.00  0.00    -0.381 A  
HETATM   23  C   UNL     1     -11.315  10.235  69.808  1.00  0.00    -0.334 A  
HETATM   24  C   UNL     1     -11.474  11.478  69.146  1.00  0.00    -0.362 A  
HETATM   25  C   UNL     1     -12.032  12.614  69.746  1.00  0.00    -0.295 A  
HETATM   26  C   UNL     1     -12.531  12.547  71.024  1.00  0.00    -0.353 A  
HETATM   27 CL   UNL     1     -12.069  14.107  68.885  1.00  0.00    -0.371 Cl 
HETATM   28  C   UNL     1     -12.458  11.334  71.693  1.00  0.00    -0.251 A  
ENDBRANCH  12  13
ENDBRANCH  11  12
ENDBRANCH   8  11
ENDBRANCH   4   5
ENDBRANCH   2   4
TORSDOF 5
ENDMDL
MODEL        4
REMARK 921   NORMALIZED FREE ENERGY PREDICTED BY IDOCK:   -7.23 KCAL/MOL
REMARK 922        TOTAL FREE ENERGY PREDICTED BY IDOCK:   -9.89 KCAL/MOL
REMARK 923 INTER-LIGAND FREE ENERGY PREDICTED BY IDOCK:   -9.77 KCAL/MOL
REMARK 924 INTRA-LIGAND FREE ENERGY PREDICTED BY IDOCK:   -0.12 KCAL/MOL
REMARK 927      BINDING AFFINITY PREDICTED BY RF-SCORE:    0.00 PKD
ROOT
HETATM    1  O   UNL     1     -11.431  16.388  63.713  1.00  0.00    -1.590 OA 
HETATM    2  C   UNL     1     -12.396  15.520  64.303  1.00  0.00     0.004 C  
HETATM    3  H   UNL     1     -11.502  17.246  64.114  1.00  0.00     0.000 HD 
ENDROOT
BRANCH   2   4
HETATM    4  C   UNL     1     -12.282  14.137  63.657  1.00  0.00    -0.005 C  
BRANCH   4   5
HETATM    5  N   UNL     1     -12.661  12.999  64.518  1.00  0.00    -0.701 NA 
HETATM    6  C   UNL     1     -12.199  11.738  63.888  1.00  0.00    -0.297 C  
HETATM    7  C   UNL     1     -10.665  11.539  63.956  1.00  0.00    -0.384 C  
HETATM    8  N   UNL     1     -10.112  11.600  65.330  1.00  0.00    -0.248 NA 
HETATM    9  C   UNL     1     -10.558  12.862  65.953  1.00  0.00    -0.269 C  
HETATM   10  C   UNL     1     -12.087  13.083  65.882  1.00  0.00    -0.444 C  
BRANCH   8  11
HETATM   11  C   UNL     1     -10.490  10.437  66.161  1.00  0.00    -0.154 C  
BRANCH  11  12
HETATM   12  C   UNL     1      -9.887  10.594  67.560  1.00  0.00    -0.194 C  
BRANCH  12  13
HETATM   13  C   UNL     1     -10.678  11.329  68.591  1.00  0.00    -0.241 C  
HETATM   14  C   UNL     1     -11.281  10.857  69.720  1.00  0.00    -0.351 C  
HETATM   15  C   UNL     1     -12.045  11.898  70.538  1.00  0.00    -0.422 A  
HETATM   16  C   UNL     1     -11.935  13.291  70.306  1.00  0.00    -0.372 A  
HETATM   17  C   UNL     1     -12.671  14.241  71.026  1.00  0.00    -0.430 A  
HETATM   18  C   UNL     1     -13.519  13.833  72.035  1.00  0.00    -0.559 A  
HETATM   19  C   UNL     1     -13.628  12.477  72.313  1.00  0.00    -0.443 A  
HETATM   20  C   UNL     1     -12.909  11.511  71.574  1.00  0.00    -0.380 A  
HETATM   21  S   UNL     1     -13.227   9.844  72.077  1.00  0.00    -0.415 SA 
HETATM   22  C   UNL     1     -12.111   8.871  71.106  1.00  0.00    -0.277 A  
HETATM   23  C   UNL     1     -11.265   9.367  70.097  1.00  0.00    -0.253 A  
HETATM   24  C   UNL     1     -10.451   8.386  69.477  1.00  0.00    -0.225 A  
HETATM   25  C   UNL     1     -10.527   7.017  69.761  1.00  0.00    -0.219 A  
HETATM   26  C   UNL     1     -11.376   6.559  70.739  1.00  0.00    -0.399 A  
HETATM   27 CL   UNL     1      -9.569   5.901  68.861  1.00  0.00    -0.148 Cl 
HETATM   28  C   UNL     1     -12.150   7.486  71.421  1.00  0.00    -0.354 A  
ENDBRANCH  12  13
ENDBRANCH  11  12
ENDBRANCH   8  11
ENDBRANCH   4   5
ENDBRANCH   2   4
TORSDOF 5
ENDMDL
MODEL        5
REMARK 921   NORMALIZED FREE ENERGY PREDICTED BY IDOCK:   -7.09 KCAL/MOL
REMARK 922        TOTAL FREE ENERGY PREDICTED BY IDOCK:   -9.72 KCAL/MOL
REMARK 923 INTER-LIGAND FREE ENERGY PREDICTED BY IDOCK:   -9.17 KCAL/MOL
REMARK 924 INTRA-LIGAND FREE ENERGY PREDICTED BY IDOCK:   -0.54 KCAL/MOL
REMARK 927      BINDING AFFINITY PREDICTED BY RF-SCORE:    0.00 PKD
ROOT
HETATM    1  O   UNL     1     -10.045   4.681  74.513  1.00  0.00    -0.183 OA 
HETATM    2  C   UNL     1     -10.384   4.542  73.135  1.00  0.00    -0.180 C  
HETATM    3  H   UNL     1      -9.404   4.018  74.741  1.00  0.00     0.000 HD 
ENDROOT
BRANCH   2   4
HETATM    4  C   UNL     1     -11.417   5.610  72.767  1.00  0.00    -0.274 C  
BRANCH   4   5
HETATM    5  N   UNL     1     -11.289   6.179  71.411  1.00  0.00    -0.290 NA 
HETATM    6  C   UNL     1     -12.476   7.020  71.122  1.00  0.00    -0.362 C  
HETATM    7  C   UNL     1     -12.491   8.357  71.902  1.00  0.00    -0.347 C  
HETATM    8  N   UNL     1     -11.277   9.184  71.698  1.00  0.00    -0.357 NA 
HETATM    9  C   UNL     1     -10.095   8.354  72.000  1.00  0.00    -0.294 C  
HETATM   10  C   UNL     1     -10.071   7.008  71.240  1.00  0.00    -0.190 C  
BRANCH   8  11
HETATM   11  C   UNL     1     -11.188   9.759  70.339  1.00  0.00    -0.300 C  
BRANCH  11  12
HETATM   12  C   UNL     1     -12.360  10.719  70.115  1.00  0.00    -0.401 C  
BRANCH  12  13
HETATM   13  C   UNL     1     -12.372  12.006  70.873  1.00  0.00    -0.384 C  
HETATM   14  C   UNL     1     -12.120  13.273  70.434  1.00  0.00    -0.401 C  
HETATM   15  C   UNL     1     -12.191  14.362  71.505  1.00  0.00    -0.406 A  
HETATM   16  C   UNL     1     -12.727  14.139  72.797  1.00  0.00    -0.362 A  
HETATM   17  C   UNL     1     -12.749  15.125  73.791  1.00  0.00    -0.667 A  
HETATM   18  C   UNL     1     -12.269  16.389  73.516  1.00  0.00    -0.556 A  
HETATM   19  C   UNL     1     -11.765  16.655  72.250  1.00  0.00    -0.186 A  
HETATM   20  C   UNL     1     -11.716  15.658  71.249  1.00  0.00    -0.422 A  
HETATM   21  S   UNL     1     -11.006  16.210  69.725  1.00  0.00    -0.359 SA 
HETATM   22  C   UNL     1     -11.197  14.834  68.627  1.00  0.00    -0.273 A  
HETATM   23  C   UNL     1     -11.709  13.573  68.984  1.00  0.00    -0.370 A  
HETATM   24  C   UNL     1     -11.780  12.643  67.917  1.00  0.00    -0.412 A  
HETATM   25  C   UNL     1     -11.302  12.900  66.626  1.00  0.00    -0.317 A  
HETATM   26  C   UNL     1     -10.789  14.135  66.311  1.00  0.00    -0.300 A  
HETATM   27 CL   UNL     1     -11.333  11.652  65.437  1.00  0.00    -0.274 Cl 
HETATM   28  C   UNL     1     -10.756  15.103  67.304  1.00  0.00    -0.305 A  
ENDBRANCH  12  13
ENDBRANCH  11  12
ENDBRANCH   8  11
ENDBRANCH   4   5
ENDBRANCH   2   4
TORSDOF 5
ENDMDL
MODEL        6
REMARK 921   NORMALIZED FREE ENERGY PREDICTED BY IDOCK:   -7.00 KCAL/MOL
REMARK 922        TOTAL FREE ENERGY PREDICTED BY IDOCK:   -9.60 KCAL/MOL
REMARK 923 INTER-LIGAND FREE ENERGY PREDICTED BY IDOCK:   -9.08 KCAL/MOL
REMARK 924 INTRA-LIGAND FREE ENERGY PREDICTED BY IDOCK:   -0.52 KCAL/MOL
REMARK 927      BINDING AFFINITY PREDICTED BY RF-SCORE:    0.00 PKD
ROOT
HETATM    1  O   UNL     1      -6.554  21.055  65.675  1.00  0.00    -0.455 OA 
HETATM    2  C   UNL     1      -6.835  21.048  67.073  1.00  0.00    -0.328 C  
HETATM    3  H   UNL     1      -5.641  21.287  65.545  1.00  0.00     0.000 HD 
ENDROOT
BRANCH   2   4
HETATM    4  C   UNL     1      -8.305  20.674  67.281  1.00  0.00    -0.227 C  
BRANCH   4   5
HETATM    5  N   UNL     1      -8.575  19.763  68.412  1.00  0.00    -0.296 NA 
HETATM    6  C   UNL     1     -10.040  19.668  68.621  1.00  0.00    -0.447 C  
HETATM    7  C   UNL     1     -10.768  18.852  67.525  1.00  0.00    -0.434 C  
HETATM    8  N   UNL     1     -10.236  17.479  67.347  1.00  0.00    -0.325 NA 
HETATM    9  C   UNL     1      -8.780  17.573  67.124  1.00  0.00    -0.237 C  
HETATM   10  C   UNL     1      -8.039  18.397  68.202  1.00  0.00    -0.290 C  
BRANCH   8  11
HETATM   11  C   UNL     1     -10.542  16.585  68.483  1.00  0.00    -0.318 C  
BRANCH  11  12
HETATM   12  C   UNL     1     -11.644  15.603  68.076  1.00  0.00    -0.245 C  
BRANCH  12  13
HETATM   13  C   UNL     1     -11.314  14.550  67.070  1.00  0.00    -0.359 C  
HETATM   14  C   UNL     1     -11.334  13.192  67.198  1.00  0.00    -0.354 C  
HETATM   15  C   UNL     1     -10.899  12.411  65.958  1.00  0.00    -0.308 A  
HETATM   16  C   UNL     1     -10.732  13.014  64.687  1.00  0.00    -0.386 A  
HETATM   17  C   UNL     1     -10.289  12.306  63.562  1.00  0.00    -0.443 A  
HETATM   18  C   UNL     1     -10.031  10.955  63.659  1.00  0.00    -0.415 A  
HETATM   19  C   UNL     1     -10.214  10.322  64.881  1.00  0.00    -0.261 A  
HETATM   20  C   UNL     1     -10.636  11.034  66.027  1.00  0.00    -0.213 A  
HETATM   21  S   UNL     1     -10.769  10.034  67.481  1.00  0.00    -0.261 SA 
HETATM   22  C   UNL     1     -11.441  11.124  68.704  1.00  0.00    -0.298 A  
HETATM   23  C   UNL     1     -11.688  12.497  68.523  1.00  0.00    -0.369 A  
HETATM   24  C   UNL     1     -12.249  13.149  69.650  1.00  0.00    -0.241 A  
HETATM   25  C   UNL     1     -12.465  12.522  70.884  1.00  0.00    -0.269 A  
HETATM   26  C   UNL     1     -12.198  11.184  71.037  1.00  0.00    -0.438 A  
HETATM   27 CL   UNL     1     -13.045  13.443  72.221  1.00  0.00    -0.492 Cl 
HETATM   28  C   UNL     1     -11.706  10.485  69.945  1.00  0.00    -0.372 A  
ENDBRANCH  12  13
ENDBRANCH  11  12
ENDBRANCH   8  11
ENDBRANCH   4   5
ENDBRANCH   2   4
TORSDOF 5
ENDMDL
MODEL        7
REMARK 921   NORMALIZED FREE ENERGY PREDICTED BY IDOCK:   -6.98 KCAL/MOL
REMARK 922        TOTAL FREE ENERGY PREDICTED BY IDOCK:   -9.57 KCAL/MOL
REMARK 923 INTER-LIGAND FREE ENERGY PREDICTED BY IDOCK:   -8.98 KCAL/MOL
REMARK 924 INTRA-LIGAND FREE ENERGY PREDICTED BY IDOCK:   -0.59 KCAL/MOL
REMARK 927      BINDING AFFINITY PREDICTED BY RF-SCORE:    0.00 PKD
ROOT
HETATM    1  O   UNL     1     -12.044   5.036  73.197  1.00  0.00    -0.473 OA 
HETATM    2  C   UNL     1     -10.810   5.587  73.650  1.00  0.00    -0.249 C  
HETATM    3  H   UNL     1     -12.577   4.811  73.950  1.00  0.00     0.000 HD 
ENDROOT
BRANCH   2   4
HETATM    4  C   UNL     1      -9.952   5.950  72.436  1.00  0.00    -0.171 C  
BRANCH   4   5
HETATM    5  N   UNL     1      -9.650   7.387  72.277  1.00  0.00    -0.148 NA 
HETATM    6  C   UNL     1      -9.021   7.607  70.952  1.00  0.00    -0.148 C  
HETATM    7  C   UNL     1     -10.011   7.476  69.768  1.00  0.00    -0.186 C  
HETATM    8  N   UNL     1     -11.193   8.366  69.873  1.00  0.00    -0.105 NA 
HETATM    9  C   UNL     1     -11.828   8.136  71.185  1.00  0.00    -0.279 C  
HETATM   10  C   UNL     1     -10.851   8.250  72.378  1.00  0.00    -0.351 C  
BRANCH   8  11
HETATM   11  C   UNL     1     -10.863   9.795  69.687  1.00  0.00    -0.250 C  
BRANCH  11  12
HETATM   12  C   UNL     1     -12.158  10.608  69.600  1.00  0.00    -0.312 C  
BRANCH  12  13
HETATM   13  C   UNL     1     -12.267  11.850  70.422  1.00  0.00    -0.399 C  
HETATM   14  C   UNL     1     -12.087  13.151  70.054  1.00  0.00    -0.375 C  
HETATM   15  C   UNL     1     -12.248  14.177  71.176  1.00  0.00    -0.435 A  
HETATM   16  C   UNL     1     -12.794  13.853  72.443  1.00  0.00    -0.379 A  
HETATM   17  C   UNL     1     -12.898  14.783  73.485  1.00  0.00    -0.533 A  
HETATM   18  C   UNL     1     -12.494  16.087  73.285  1.00  0.00    -0.645 A  
HETATM   19  C   UNL     1     -11.984  16.450  72.046  1.00  0.00    -0.437 A  
HETATM   20  C   UNL     1     -11.851  15.512  70.997  1.00  0.00    -0.382 A  
HETATM   21  S   UNL     1     -11.148  16.185  69.520  1.00  0.00    -0.344 SA 
HETATM   22  C   UNL     1     -11.230  14.858  68.349  1.00  0.00    -0.292 A  
HETATM   23  C   UNL     1     -11.668  13.551  68.630  1.00  0.00    -0.389 A  
HETATM   24  C   UNL     1     -11.659  12.675  67.516  1.00  0.00    -0.418 A  
HETATM   25  C   UNL     1     -11.173  13.029  66.251  1.00  0.00    -0.301 A  
HETATM   26  C   UNL     1     -10.734  14.308  66.010  1.00  0.00    -0.304 A  
HETATM   27 CL   UNL     1     -11.102  11.846  64.999  1.00  0.00    -0.362 Cl 
HETATM   28  C   UNL     1     -10.782  15.223  67.052  1.00  0.00    -0.313 A  
ENDBRANCH  12  13
ENDBRANCH  11  12
ENDBRANCH   8  11
ENDBRANCH   4   5
ENDBRANCH   2   4
TORSDOF 5
ENDMDL
MODEL        8
REMARK 921   NORMALIZED FREE ENERGY PREDICTED BY IDOCK:   -6.95 KCAL/MOL
REMARK 922        TOTAL FREE ENERGY PREDICTED BY IDOCK:   -9.54 KCAL/MOL
REMARK 923 INTER-LIGAND FREE ENERGY PREDICTED BY IDOCK:   -8.98 KCAL/MOL
REMARK 924 INTRA-LIGAND FREE ENERGY PREDICTED BY IDOCK:   -0.55 KCAL/MOL
REMARK 927      BINDING AFFINITY PREDICTED BY RF-SCORE:    0.00 PKD
ROOT
HETATM    1  O   UNL     1     -10.417  20.001  65.763  1.00  0.00    -0.477 OA 
HETATM    2  C   UNL     1      -9.825  18.821  66.301  1.00  0.00    -0.353 C  
HETATM    3  H   UNL     1      -9.930  20.758  66.068  1.00  0.00     0.000 HD 
ENDROOT
BRANCH   2   4
HETATM    4  C   UNL     1     -10.610  17.603  65.810  1.00  0.00    -0.177 C  
BRANCH   4   5
HETATM    5  N   UNL     1      -9.810  16.384  65.572  1.00  0.00    -0.533 NA 
HETATM    6  C   UNL     1      -9.242  15.917  66.860  1.00  0.00    -0.226 C  
HETATM    7  C   UNL     1     -10.293  15.288  67.807  1.00  0.00    -0.244 C  
HETATM    8  N   UNL     1     -11.051  14.166  67.202  1.00  0.00    -0.299 NA 
HETATM    9  C   UNL     1     -11.630  14.634  65.927  1.00  0.00    -0.327 C  
HETATM   10  C   UNL     1     -10.596  15.278  64.975  1.00  0.00    -0.418 C  
BRANCH   8  11
HETATM   11  C   UNL     1     -10.231  12.954  66.998  1.00  0.00    -0.243 C  
BRANCH  11  12
HETATM   12  C   UNL     1      -9.745  12.434  68.354  1.00  0.00    -0.189 C  
BRANCH  12  13
HETATM   13  C   UNL     1     -10.114  11.042  68.750  1.00  0.00    -0.214 C  
HETATM   14  C   UNL     1     -11.075  10.614  69.618  1.00  0.00    -0.342 C  
HETATM   15  C   UNL     1     -11.155   9.100  69.811  1.00  0.00    -0.140 A  
HETATM   16  C   UNL     1     -10.477   8.180  68.974  1.00  0.00    -0.211 A  
HETATM   17  C   UNL     1     -10.514   6.795  69.179  1.00  0.00    -0.240 A  
HETATM   18  C   UNL     1     -11.267   6.274  70.212  1.00  0.00    -0.455 A  
HETATM   19  C   UNL     1     -11.972   7.142  71.034  1.00  0.00    -0.387 A  
HETATM   20  C   UNL     1     -11.919   8.543  70.849  1.00  0.00    -0.181 A  
HETATM   21  S   UNL     1     -12.866   9.457  72.031  1.00  0.00    -0.420 SA 
HETATM   22  C   UNL     1     -12.742  11.138  71.489  1.00  0.00    -0.394 A  
HETATM   23  C   UNL     1     -11.957  11.590  70.414  1.00  0.00    -0.459 A  
HETATM   24  C   UNL     1     -12.043  12.984  70.167  1.00  0.00    -0.377 A  
HETATM   25  C   UNL     1     -12.770  13.873  70.968  1.00  0.00    -0.357 A  
HETATM   26  C   UNL     1     -13.513  13.405  72.024  1.00  0.00    -0.584 A  
HETATM   27 CL   UNL     1     -12.708  15.565  70.641  1.00  0.00    -0.497 Cl 
HETATM   28  C   UNL     1     -13.513  12.040  72.270  1.00  0.00    -0.239 A  
ENDBRANCH  12  13
ENDBRANCH  11  12
ENDBRANCH   8  11
ENDBRANCH   4   5
ENDBRANCH   2   4
TORSDOF 5
ENDMDL
MODEL        9
REMARK 921   NORMALIZED FREE ENERGY PREDICTED BY IDOCK:   -6.93 KCAL/MOL
REMARK 922        TOTAL FREE ENERGY PREDICTED BY IDOCK:   -9.51 KCAL/MOL
REMARK 923 INTER-LIGAND FREE ENERGY PREDICTED BY IDOCK:   -8.96 KCAL/MOL
REMARK 924 INTRA-LIGAND FREE ENERGY PREDICTED BY IDOCK:   -0.55 KCAL/MOL
REMARK 927      BINDING AFFINITY PREDICTED BY RF-SCORE:    0.00 PKD
ROOT
HETATM    1  O   UNL     1      -7.628  21.217  66.906  1.00  0.00    -0.717 OA 
HETATM    2  C   UNL     1      -7.124  20.243  67.816  1.00  0.00    -0.304 C  
HETATM    3  H   UNL     1      -7.237  22.059  67.107  1.00  0.00     0.000 HD 
ENDROOT
BRANCH   2   4
HETATM    4  C   UNL     1      -7.755  18.887  67.492  1.00  0.00    -0.233 C  
BRANCH   4   5
HETATM    5  N   UNL     1      -8.526  18.266  68.589  1.00  0.00    -0.310 NA 
HETATM    6  C   UNL     1      -9.971  18.517  68.370  1.00  0.00    -0.380 C  
HETATM    7  C   UNL     1     -10.573  17.691  67.207  1.00  0.00    -0.296 C  
HETATM    8  N   UNL     1     -10.372  16.228  67.343  1.00  0.00    -0.280 NA 
HETATM    9  C   UNL     1      -8.933  15.975  67.546  1.00  0.00    -0.194 C  
HETATM   10  C   UNL     1      -8.312  16.803  68.695  1.00  0.00    -0.252 C  
BRANCH   8  11
HETATM   11  C   UNL     1     -11.173  15.631  68.433  1.00  0.00    -0.352 C  
BRANCH  11  12
HETATM   12  C   UNL     1     -12.099  14.557  67.854  1.00  0.00    -0.261 C  
BRANCH  12  13
HETATM   13  C   UNL     1     -11.534  13.604  66.853  1.00  0.00    -0.369 C  
HETATM   14  C   UNL     1     -11.243  12.278  66.987  1.00  0.00    -0.367 C  
HETATM   15  C   UNL     1     -10.638  11.613  65.751  1.00  0.00    -0.320 A  
HETATM   16  C   UNL     1     -10.611  12.232  64.478  1.00  0.00    -0.346 A  
HETATM   17  C   UNL     1     -10.015  11.641  63.357  1.00  0.00    -0.447 A  
HETATM   18  C   UNL     1      -9.454  10.385  63.460  1.00  0.00    -0.356 A  
HETATM   19  C   UNL     1      -9.490   9.732  64.685  1.00  0.00    -0.295 A  
HETATM   20  C   UNL     1     -10.066  10.333  65.827  1.00  0.00    -0.255 A  
HETATM   21  S   UNL     1      -9.970   9.335  67.285  1.00  0.00    -0.225 SA 
HETATM   22  C   UNL     1     -10.876  10.247  68.503  1.00  0.00    -0.240 A  
HETATM   23  C   UNL     1     -11.430  11.526  68.315  1.00  0.00    -0.368 A  
HETATM   24  C   UNL     1     -12.129  12.036  69.439  1.00  0.00    -0.261 A  
HETATM   25  C   UNL     1     -12.198  11.382  70.675  1.00  0.00    -0.389 A  
HETATM   26  C   UNL     1     -11.631  10.141  70.834  1.00  0.00    -0.459 A  
HETATM   27 CL   UNL     1     -12.976  12.150  72.008  1.00  0.00    -0.444 Cl 
HETATM   28  C   UNL     1     -10.990   9.569  69.745  1.00  0.00    -0.245 A  
ENDBRANCH  12  13
ENDBRANCH  11  12
ENDBRANCH   8  11
ENDBRANCH   4   5
ENDBRANCH   2   4
TORSDOF 5
ENDMDL
MODEL       10
REMARK 921   NORMALIZED FREE ENERGY PREDICTED BY IDOCK:   -6.93 KCAL/MOL
REMARK 922        TOTAL FREE ENERGY PREDICTED BY IDOCK:   -9.50 KCAL/MOL
REMARK 923 INTER-LIGAND FREE ENERGY PREDICTED BY IDOCK:   -8.99 KCAL/MOL
REMARK 924 INTRA-LIGAND FREE ENERGY PREDICTED BY IDOCK:   -0.51 KCAL/MOL
REMARK 927      BINDING AFFINITY PREDICTED BY RF-SCORE:    0.00 PKD
ROOT
HETATM    1  O   UNL     1      -9.374   2.497  71.992  1.00  0.00    -0.088 OA 
HETATM    2  C   UNL     1     -10.527   2.600  72.825  1.00  0.00    -0.137 C  
HETATM    3  H   UNL     1      -9.237   1.584  71.766  1.00  0.00     0.000 HD 
ENDROOT
BRANCH   2   4
HETATM    4  C   UNL     1     -10.747   4.070  73.189  1.00  0.00    -0.186 C  
BRANCH   4   5
HETATM    5  N   UNL     1     -10.009   5.048  72.363  1.00  0.00    -0.172 NA 
HETATM    6  C   UNL     1     -10.940   5.656  71.382  1.00  0.00    -0.190 C  
HETATM    7  C   UNL     1     -11.946   6.647  72.017  1.00  0.00    -0.319 C  
HETATM    8  N   UNL     1     -11.306   7.740  72.788  1.00  0.00    -0.391 NA 
HETATM    9  C   UNL     1     -10.391   7.136  73.775  1.00  0.00    -0.347 C  
HETATM   10  C   UNL     1      -9.388   6.132  73.160  1.00  0.00    -0.138 C  
BRANCH   8  11
HETATM   11  C   UNL     1     -10.595   8.715  71.934  1.00  0.00    -0.340 C  
BRANCH  11  12
HETATM   12  C   UNL     1     -11.575   9.311  70.919  1.00  0.00    -0.364 C  
BRANCH  12  13
HETATM   13  C   UNL     1     -12.062  10.705  71.144  1.00  0.00    -0.445 C  
HETATM   14  C   UNL     1     -12.105  11.758  70.279  1.00  0.00    -0.426 C  
HETATM   15  C   UNL     1     -12.643  13.064  70.864  1.00  0.00    -0.364 A  
HETATM   16  C   UNL     1     -13.292  13.135  72.121  1.00  0.00    -0.621 A  
HETATM   17  C   UNL     1     -13.743  14.339  72.676  1.00  0.00    -0.555 A  
HETATM   18  C   UNL     1     -13.594  15.518  71.974  1.00  0.00    -0.595 A  
HETATM   19  C   UNL     1     -12.992  15.483  70.724  1.00  0.00    -0.490 A  
HETATM   20  C   UNL     1     -12.511  14.276  70.168  1.00  0.00    -0.335 A  
HETATM   21  S   UNL     1     -11.750  14.472  68.583  1.00  0.00    -0.326 SA 
HETATM   22  C   UNL     1     -11.377  12.820  68.066  1.00  0.00    -0.292 A  
HETATM   23  C   UNL     1     -11.569  11.662  68.841  1.00  0.00    -0.377 A  
HETATM   24  C   UNL     1     -11.211  10.454  68.193  1.00  0.00    -0.333 A  
HETATM   25  C   UNL     1     -10.625  10.395  66.922  1.00  0.00    -0.230 A  
HETATM   26  C   UNL     1     -10.432  11.545  66.196  1.00  0.00    -0.296 A  
HETATM   27 CL   UNL     1     -10.122   8.876  66.280  1.00  0.00    -0.345 Cl 
HETATM   28  C   UNL     1     -10.825  12.750  66.759  1.00  0.00    -0.289 A  
ENDBRANCH  12  13
ENDBRANCH  11  12
ENDBRANCH   8  11
ENDBRANCH   4   5
ENDBRANCH   2   4
TORSDOF 5
ENDMDL
MODEL       11
REMARK 921   NORMALIZED FREE ENERGY PREDICTED BY IDOCK:   -6.90 KCAL/MOL
REMARK 922        TOTAL FREE ENERGY PREDICTED BY IDOCK:   -9.47 KCAL/MOL
REMARK 923 INTER-LIGAND FREE ENERGY PREDICTED BY IDOCK:   -8.87 KCAL/MOL
REMARK 924 INTRA-LIGAND FREE ENERGY PREDICTED BY IDOCK:   -0.60 KCAL/MOL
REMARK 927      BINDING AFFINITY PREDICTED BY RF-SCORE:    0.00 PKD
ROOT
HETATM    1  O   UNL     1      -7.821   6.484  69.942  1.00  0.00    -0.109 OA 
HETATM    2  C   UNL     1      -8.737   5.393  70.003  1.00  0.00    -0.122 C  
HETATM    3  H   UNL     1      -7.446   6.524  69.070  1.00  0.00     0.000 HD 
ENDROOT
BRANCH   2   4
HETATM    4  C   UNL     1      -9.341   5.329  71.407  1.00  0.00    -0.148 C  
BRANCH   4   5
HETATM    5  N   UNL     1     -10.790   5.601  71.490  1.00  0.00    -0.250 NA 
HETATM    6  C   UNL     1     -11.121   6.056  72.862  1.00  0.00    -0.255 C  
HETATM    7  C   UNL     1     -10.629   7.491  73.173  1.00  0.00    -0.388 C  
HETATM    8  N   UNL     1     -11.115   8.513  72.215  1.00  0.00    -0.362 NA 
HETATM    9  C   UNL     1     -10.773   8.068  70.851  1.00  0.00    -0.221 C  
HETATM   10  C   UNL     1     -11.245   6.632  70.528  1.00  0.00    -0.334 C  
BRANCH   8  11
HETATM   11  C   UNL     1     -12.564   8.780  72.338  1.00  0.00    -0.363 C  
BRANCH  11  12
HETATM   12  C   UNL     1     -12.997   9.748  71.232  1.00  0.00    -0.470 C  
BRANCH  12  13
HETATM   13  C   UNL     1     -12.961  11.212  71.523  1.00  0.00    -0.542 C  
HETATM   14  C   UNL     1     -12.402  12.226  70.802  1.00  0.00    -0.383 C  
HETATM   15  C   UNL     1     -12.527  13.617  71.422  1.00  0.00    -0.374 A  
HETATM   16  C   UNL     1     -13.374  13.897  72.523  1.00  0.00    -0.656 A  
HETATM   17  C   UNL     1     -13.453  15.162  73.119  1.00  0.00    -0.478 A  
HETATM   18  C   UNL     1     -12.712  16.209  72.610  1.00  0.00    -0.457 A  
HETATM   19  C   UNL     1     -11.895  15.981  71.511  1.00  0.00    -0.554 A  
HETATM   20  C   UNL     1     -11.790  14.702  70.920  1.00  0.00    -0.313 A  
HETATM   21  S   UNL     1     -10.667  14.635  69.554  1.00  0.00    -0.133 SA 
HETATM   22  C   UNL     1     -10.836  12.988  68.925  1.00  0.00    -0.206 A  
HETATM   23  C   UNL     1     -11.624  11.975  69.499  1.00  0.00    -0.389 A  
HETATM   24  C   UNL     1     -11.608  10.745  68.794  1.00  0.00    -0.350 A  
HETATM   25  C   UNL     1     -10.811  10.504  67.669  1.00  0.00    -0.300 A  
HETATM   26  C   UNL     1     -10.036  11.507  67.141  1.00  0.00    -0.222 A  
HETATM   27 CL   UNL     1     -10.784   8.932  66.960  1.00  0.00    -0.268 Cl 
HETATM   28  C   UNL     1     -10.065  12.750  67.756  1.00  0.00    -0.224 A  
ENDBRANCH  12  13
ENDBRANCH  11  12
ENDBRANCH   8  11
ENDBRANCH   4   5
ENDBRANCH   2   4
TORSDOF 5
ENDMDL
MODEL       12
REMARK 921   NORMALIZED FREE ENERGY PREDICTED BY IDOCK:   -6.89 KCAL/MOL
REMARK 922        TOTAL FREE ENERGY PREDICTED BY IDOCK:   -9.45 KCAL/MOL
REMARK 923 INTER-LIGAND FREE ENERGY PREDICTED BY IDOCK:   -8.92 KCAL/MOL
REMARK 924 INTRA-LIGAND FREE ENERGY PREDICTED BY IDOCK:   -0.53 KCAL/MOL
REMARK 927      BINDING AFFINITY PREDICTED BY RF-SCORE:    0.00 PKD
ROOT
HETATM    1  O   UNL     1      -9.415   2.552  71.282  1.00  0.00    -0.128 OA 
HETATM    2  C   UNL     1      -8.471   3.620  71.297  1.00  0.00    -0.068 C  
HETATM    3  H   UNL     1      -9.100   1.869  70.702  1.00  0.00     0.000 HD 
ENDROOT
BRANCH   2   4
HETATM    4  C   UNL     1      -8.979   4.720  72.232  1.00  0.00    -0.126 C  
BRANCH   4   5
HETATM    5  N   UNL     1     -10.409   5.064  72.093  1.00  0.00    -0.210 NA 
HETATM    6  C   UNL     1     -10.905   5.607  73.380  1.00  0.00    -0.275 C  
HETATM    7  C   UNL     1     -10.385   7.032  73.692  1.00  0.00    -0.373 C  
HETATM    8  N   UNL     1     -10.676   8.023  72.627  1.00  0.00    -0.334 NA 
HETATM    9  C   UNL     1     -10.168   7.490  71.348  1.00  0.00    -0.186 C  
HETATM   10  C   UNL     1     -10.667   6.062  71.028  1.00  0.00    -0.265 C  
BRANCH   8  11
HETATM   11  C   UNL     1     -12.111   8.364  72.527  1.00  0.00    -0.337 C  
BRANCH  11  12
HETATM   12  C   UNL     1     -12.344   9.218  71.278  1.00  0.00    -0.403 C  
BRANCH  12  13
HETATM   13  C   UNL     1     -12.576  10.682  71.459  1.00  0.00    -0.517 C  
HETATM   14  C   UNL     1     -12.297  11.715  70.612  1.00  0.00    -0.437 C  
HETATM   15  C   UNL     1     -12.642  13.107  71.142  1.00  0.00    -0.403 A  
HETATM   16  C   UNL     1     -13.427  13.317  72.303  1.00  0.00    -0.679 A  
HETATM   17  C   UNL     1     -13.704  14.592  72.813  1.00  0.00    -0.466 A  
HETATM   18  C   UNL     1     -13.236  15.711  72.156  1.00  0.00    -0.547 A  
HETATM   19  C   UNL     1     -12.491  15.546  70.996  1.00  0.00    -0.492 A  
HETATM   20  C   UNL     1     -12.185  14.263  70.489  1.00  0.00    -0.356 A  
HETATM   21  S   UNL     1     -11.198  14.290  69.021  1.00  0.00    -0.279 SA 
HETATM   22  C   UNL     1     -11.089  12.591  68.532  1.00  0.00    -0.262 A  
HETATM   23  C   UNL     1     -11.605  11.501  69.257  1.00  0.00    -0.388 A  
HETATM   24  C   UNL     1     -11.406  10.239  68.643  1.00  0.00    -0.226 A  
HETATM   25  C   UNL     1     -10.680  10.054  67.460  1.00  0.00    -0.281 A  
HETATM   26  C   UNL     1     -10.171  11.136  66.783  1.00  0.00    -0.272 A  
HETATM   27 CL   UNL     1     -10.402   8.460  66.866  1.00  0.00    -0.381 Cl 
HETATM   28  C   UNL     1     -10.393  12.401  67.309  1.00  0.00    -0.227 A  
ENDBRANCH  12  13
ENDBRANCH  11  12
ENDBRANCH   8  11
ENDBRANCH   4   5
ENDBRANCH   2   4
TORSDOF 5
ENDMDL
MODEL       13
REMARK 921   NORMALIZED FREE ENERGY PREDICTED BY IDOCK:   -6.86 KCAL/MOL
REMARK 922        TOTAL FREE ENERGY PREDICTED BY IDOCK:   -9.41 KCAL/MOL
REMARK 923 INTER-LIGAND FREE ENERGY PREDICTED BY IDOCK:   -8.83 KCAL/MOL
REMARK 924 INTRA-LIGAND FREE ENERGY PREDICTED BY IDOCK:   -0.59 KCAL/MOL
REMARK 927      BINDING AFFINITY PREDICTED BY RF-SCORE:    0.00 PKD
ROOT
HETATM    1  O   UNL     1      -9.897   3.991  70.494  1.00  0.00    -0.194 OA 
HETATM    2  C   UNL     1      -9.894   3.943  71.919  1.00  0.00    -0.178 C  
HETATM    3  H   UNL     1     -10.058   3.117  70.156  1.00  0.00     0.000 HD 
ENDROOT
BRANCH   2   4
HETATM    4  C   UNL     1      -9.634   5.350  72.463  1.00  0.00    -0.149 C  
BRANCH   4   5
HETATM    5  N   UNL     1     -10.804   6.028  73.058  1.00  0.00    -0.249 NA 
HETATM    6  C   UNL     1     -10.415   7.400  73.464  1.00  0.00    -0.345 C  
HETATM    7  C   UNL     1     -10.210   8.363  72.269  1.00  0.00    -0.326 C  
HETATM    8  N   UNL     1     -11.385   8.461  71.370  1.00  0.00    -0.252 NA 
HETATM    9  C   UNL     1     -11.763   7.097  70.952  1.00  0.00    -0.328 C  
HETATM   10  C   UNL     1     -11.958   6.118  72.133  1.00  0.00    -0.260 C  
BRANCH   8  11
HETATM   11  C   UNL     1     -12.531   9.164  71.984  1.00  0.00    -0.382 C  
BRANCH  11  12
HETATM   12  C   UNL     1     -12.844  10.428  71.178  1.00  0.00    -0.511 C  
BRANCH  12  13
HETATM   13  C   UNL     1     -12.182  10.600  69.851  1.00  0.00    -0.346 C  
HETATM   14  C   UNL     1     -11.761  11.741  69.234  1.00  0.00    -0.398 C  
HETATM   15  C   UNL     1     -11.147  11.547  67.847  1.00  0.00    -0.317 A  
HETATM   16  C   UNL     1     -10.795  10.276  67.332  1.00  0.00    -0.336 A  
HETATM   17  C   UNL     1     -10.275  10.095  66.043  1.00  0.00    -0.288 A  
HETATM   18  C   UNL     1     -10.052  11.189  65.233  1.00  0.00    -0.329 A  
HETATM   19  C   UNL     1     -10.355  12.455  65.716  1.00  0.00    -0.289 A  
HETATM   20  C   UNL     1     -10.904  12.643  67.004  1.00  0.00    -0.253 A  
HETATM   21  S   UNL     1     -11.242  14.335  67.397  1.00  0.00    -0.331 SA 
HETATM   22  C   UNL     1     -11.774  14.297  69.086  1.00  0.00    -0.320 A  
HETATM   23  C   UNL     1     -11.968  13.134  69.852  1.00  0.00    -0.387 A  
HETATM   24  C   UNL     1     -12.379  13.370  71.188  1.00  0.00    -0.348 A  
HETATM   25  C   UNL     1     -12.664  14.641  71.702  1.00  0.00    -0.331 A  
HETATM   26  C   UNL     1     -12.483  15.759  70.924  1.00  0.00    -0.451 A  
HETATM   27 CL   UNL     1     -13.269  14.798  73.308  1.00  0.00    -0.546 Cl 
HETATM   28  C   UNL     1     -12.021  15.587  69.628  1.00  0.00    -0.380 A  
ENDBRANCH  12  13
ENDBRANCH  11  12
ENDBRANCH   8  11
ENDBRANCH   4   5
ENDBRANCH   2   4
TORSDOF 5
ENDMDL
MODEL       14
REMARK 921   NORMALIZED FREE ENERGY PREDICTED BY IDOCK:   -6.81 KCAL/MOL
REMARK 922        TOTAL FREE ENERGY PREDICTED BY IDOCK:   -9.35 KCAL/MOL
REMARK 923 INTER-LIGAND FREE ENERGY PREDICTED BY IDOCK:   -9.14 KCAL/MOL
REMARK 924 INTRA-LIGAND FREE ENERGY PREDICTED BY IDOCK:   -0.21 KCAL/MOL
REMARK 927      BINDING AFFINITY PREDICTED BY RF-SCORE:    0.00 PKD
ROOT
HETATM    1  O   UNL     1     -11.720  16.513  63.877  1.00  0.00    -1.527 OA 
HETATM    2  C   UNL     1     -12.178  15.405  64.649  1.00  0.00    -0.054 C  
HETATM    3  H   UNL     1     -11.704  17.287  64.428  1.00  0.00     0.000 HD 
ENDROOT
BRANCH   2   4
HETATM    4  C   UNL     1     -12.204  14.159  63.762  1.00  0.00    -0.139 C  
BRANCH   4   5
HETATM    5  N   UNL     1     -12.469  12.885  64.461  1.00  0.00    -0.594 NA 
HETATM    6  C   UNL     1     -11.999  11.760  63.618  1.00  0.00    -0.385 C  
HETATM    7  C   UNL     1     -10.456  11.638  63.554  1.00  0.00    -0.443 C  
HETATM    8  N   UNL     1      -9.809  11.523  64.883  1.00  0.00    -0.248 NA 
HETATM    9  C   UNL     1     -10.264  12.651  65.719  1.00  0.00    -0.272 C  
HETATM   10  C   UNL     1     -11.803  12.796  65.782  1.00  0.00    -0.434 C  
BRANCH   8  11
HETATM   11  C   UNL     1     -10.073  10.230  65.549  1.00  0.00    -0.281 C  
BRANCH  11  12
HETATM   12  C   UNL     1      -9.426  10.231  66.937  1.00  0.00    -0.200 C  
BRANCH  12  13
HETATM   13  C   UNL     1     -10.291  10.532  68.117  1.00  0.00    -0.201 C  
HETATM   14  C   UNL     1     -10.704   9.707  69.121  1.00  0.00    -0.237 C  
HETATM   15  C   UNL     1     -11.621  10.352  70.161  1.00  0.00    -0.392 A  
HETATM   16  C   UNL     1     -11.828  11.750  70.245  1.00  0.00    -0.382 A  
HETATM   17  C   UNL     1     -12.704  12.335  71.168  1.00  0.00    -0.340 A  
HETATM   18  C   UNL     1     -13.378  11.542  72.073  1.00  0.00    -0.397 A  
HETATM   19  C   UNL     1     -13.176  10.169  72.044  1.00  0.00    -0.534 A  
HETATM   20  C   UNL     1     -12.314   9.568  71.098  1.00  0.00    -0.326 A  
HETATM   21  S   UNL     1     -12.233   7.805  71.222  1.00  0.00    -0.280 SA 
HETATM   22  C   UNL     1     -10.999   7.337  70.043  1.00  0.00    -0.253 A  
HETATM   23  C   UNL     1     -10.345   8.213  69.157  1.00  0.00    -0.228 A  
HETATM   24  C   UNL     1      -9.380   7.595  68.323  1.00  0.00    -0.145 A  
HETATM   25  C   UNL     1      -9.142   6.216  68.296  1.00  0.00    -0.112 A  
HETATM   26  C   UNL     1      -9.809   5.381  69.160  1.00  0.00    -0.242 A  
HETATM   27 CL   UNL     1      -8.026   5.561  67.157  1.00  0.00    -0.101 Cl 
HETATM   28  C   UNL     1     -10.719   5.944  70.042  1.00  0.00    -0.396 A  
ENDBRANCH  12  13
ENDBRANCH  11  12
ENDBRANCH   8  11
ENDBRANCH   4   5
ENDBRANCH   2   4
TORSDOF 5
ENDMDL
MODEL       15
REMARK 921   NORMALIZED FREE ENERGY PREDICTED BY IDOCK:   -6.68 KCAL/MOL
REMARK 922        TOTAL FREE ENERGY PREDICTED BY IDOCK:   -9.19 KCAL/MOL
REMARK 923 INTER-LIGAND FREE ENERGY PREDICTED BY IDOCK:   -8.91 KCAL/MOL
REMARK 924 INTRA-LIGAND FREE ENERGY PREDICTED BY IDOCK:   -0.28 KCAL/MOL
REMARK 927      BINDING AFFINITY PREDICTED BY RF-SCORE:    0.00 PKD
ROOT
HETATM    1  O   UNL     1      -9.745  20.378  65.753  1.00  0.00    -0.640 OA 
HETATM    2  C   UNL     1     -10.006  19.956  67.089  1.00  0.00    -0.423 C  
HETATM    3  H   UNL     1      -9.417  21.270  65.769  1.00  0.00     0.000 HD 
ENDROOT
BRANCH   2   4
HETATM    4  C   UNL     1     -10.535  18.520  67.062  1.00  0.00    -0.402 C  
BRANCH   4   5
HETATM    5  N   UNL     1      -9.532  17.468  67.326  1.00  0.00    -0.249 NA 
HETATM    6  C   UNL     1     -10.103  16.479  68.272  1.00  0.00    -0.259 C  
HETATM    7  C   UNL     1     -11.186  15.571  67.638  1.00  0.00    -0.291 C  
HETATM    8  N   UNL     1     -10.727  14.845  66.429  1.00  0.00    -0.309 NA 
HETATM    9  C   UNL     1     -10.173  15.830  65.481  1.00  0.00    -0.378 C  
HETATM   10  C   UNL     1      -9.099  16.755  66.101  1.00  0.00    -0.253 C  
BRANCH   8  11
HETATM   11  C   UNL     1      -9.742  13.784  66.728  1.00  0.00    -0.275 C  
BRANCH  11  12
HETATM   12  C   UNL     1      -9.945  13.292  68.164  1.00  0.00    -0.234 C  
BRANCH  12  13
HETATM   13  C   UNL     1     -10.121  11.826  68.388  1.00  0.00    -0.201 C  
HETATM   14  C   UNL     1     -10.960  11.175  69.244  1.00  0.00    -0.300 C  
HETATM   15  C   UNL     1     -10.850   9.650  69.235  1.00  0.00    -0.227 A  
HETATM   16  C   UNL     1     -10.131   8.935  68.245  1.00  0.00    -0.219 A  
HETATM   17  C   UNL     1      -9.993   7.542  68.264  1.00  0.00    -0.193 A  
HETATM   18  C   UNL     1     -10.603   6.804  69.257  1.00  0.00    -0.262 A  
HETATM   19  C   UNL     1     -11.344   7.467  70.227  1.00  0.00    -0.244 A  
HETATM   20  C   UNL     1     -11.467   8.875  70.229  1.00  0.00    -0.105 A  
HETATM   21  S   UNL     1     -12.427   9.506  71.575  1.00  0.00    -0.402 SA 
HETATM   22  C   UNL     1     -12.538  11.245  71.258  1.00  0.00    -0.382 A  
HETATM   23  C   UNL     1     -11.890  11.924  70.211  1.00  0.00    -0.368 A  
HETATM   24  C   UNL     1     -12.155  13.316  70.159  1.00  0.00    -0.403 A  
HETATM   25  C   UNL     1     -12.921  13.999  71.112  1.00  0.00    -0.332 A  
HETATM   26  C   UNL     1     -13.527  13.312  72.136  1.00  0.00    -0.655 A  
HETATM   27 CL   UNL     1     -13.080  15.713  71.013  1.00  0.00    -0.544 Cl 
HETATM   28  C   UNL     1     -13.351  11.938  72.195  1.00  0.00    -0.361 A  
ENDBRANCH  12  13
ENDBRANCH  11  12
ENDBRANCH   8  11
ENDBRANCH   4   5
ENDBRANCH   2   4
TORSDOF 5
ENDMDL
MODEL       16
REMARK 921   NORMALIZED FREE ENERGY PREDICTED BY IDOCK:   -6.67 KCAL/MOL
REMARK 922        TOTAL FREE ENERGY PREDICTED BY IDOCK:   -9.16 KCAL/MOL
REMARK 923 INTER-LIGAND FREE ENERGY PREDICTED BY IDOCK:   -8.86 KCAL/MOL
REMARK 924 INTRA-LIGAND FREE ENERGY PREDICTED BY IDOCK:   -0.31 KCAL/MOL
REMARK 927      BINDING AFFINITY PREDICTED BY RF-SCORE:    0.00 PKD
ROOT
HETATM    1  O   UNL     1     -11.644  16.506  63.732  1.00  0.00    -1.617 OA 
HETATM    2  C   UNL     1     -11.204  15.420  64.544  1.00  0.00    -0.299 C  
HETATM    3  H   UNL     1     -12.064  16.159  62.954  1.00  0.00     0.000 HD 
ENDROOT
BRANCH   2   4
HETATM    4  C   UNL     1     -10.528  15.979  65.798  1.00  0.00    -0.374 C  
BRANCH   4   5
HETATM    5  N   UNL     1      -9.928  14.974  66.699  1.00  0.00    -0.249 NA 
HETATM    6  C   UNL     1     -10.117  15.407  68.105  1.00  0.00    -0.222 C  
HETATM    7  C   UNL     1     -11.578  15.276  68.600  1.00  0.00    -0.354 C  
HETATM    8  N   UNL     1     -12.141  13.912  68.457  1.00  0.00    -0.351 NA 
HETATM    9  C   UNL     1     -11.967  13.485  67.055  1.00  0.00    -0.394 C  
HETATM   10  C   UNL     1     -10.516  13.623  66.539  1.00  0.00    -0.281 C  
BRANCH   8  11
HETATM   11  C   UNL     1     -11.538  12.934  69.387  1.00  0.00    -0.302 C  
BRANCH  11  12
HETATM   12  C   UNL     1     -11.831  11.514  68.893  1.00  0.00    -0.406 C  
BRANCH  12  13
HETATM   13  C   UNL     1     -11.497  10.371  69.793  1.00  0.00    -0.348 C  
HETATM   14  C   UNL     1     -10.756   9.255  69.538  1.00  0.00    -0.236 C  
HETATM   15  C   UNL     1     -10.646   8.263  70.696  1.00  0.00    -0.235 A  
HETATM   16  C   UNL     1     -11.052   8.574  72.018  1.00  0.00    -0.412 A  
HETATM   17  C   UNL     1     -10.993   7.649  73.068  1.00  0.00    -0.457 A  
HETATM   18  C   UNL     1     -10.489   6.385  72.843  1.00  0.00    -0.243 A  
HETATM   19  C   UNL     1     -10.051   6.054  71.568  1.00  0.00    -0.232 A  
HETATM   20  C   UNL     1     -10.130   6.973  70.497  1.00  0.00    -0.191 A  
HETATM   21  S   UNL     1      -9.547   6.327  68.956  1.00  0.00    -0.128 SA 
HETATM   22  C   UNL     1      -9.623   7.703  67.845  1.00  0.00    -0.144 A  
HETATM   23  C   UNL     1     -10.146   8.972  68.155  1.00  0.00    -0.229 A  
HETATM   24  C   UNL     1     -10.075   9.913  67.098  1.00  0.00    -0.270 A  
HETATM   25  C   UNL     1      -9.612   9.607  65.812  1.00  0.00    -0.263 A  
HETATM   26  C   UNL     1      -9.125   8.353  65.532  1.00  0.00    -0.108 A  
HETATM   27 CL   UNL     1      -9.680  10.801  64.571  1.00  0.00    -0.319 Cl 
HETATM   28  C   UNL     1      -9.113   7.413  66.551  1.00  0.00    -0.195 A  
ENDBRANCH  12  13
ENDBRANCH  11  12
ENDBRANCH   8  11
ENDBRANCH   4   5
ENDBRANCH   2   4
TORSDOF 5
ENDMDL
MODEL       17
REMARK 921   NORMALIZED FREE ENERGY PREDICTED BY IDOCK:   -6.64 KCAL/MOL
REMARK 922        TOTAL FREE ENERGY PREDICTED BY IDOCK:   -9.13 KCAL/MOL
REMARK 923 INTER-LIGAND FREE ENERGY PREDICTED BY IDOCK:   -8.60 KCAL/MOL
REMARK 924 INTRA-LIGAND FREE ENERGY PREDICTED BY IDOCK:   -0.53 KCAL/MOL
REMARK 927      BINDING AFFINITY PREDICTED BY RF-SCORE:    0.00 PKD
ROOT
HETATM    1  O   UNL     1     -11.756  16.345  63.614  1.00  0.00    -1.520 OA 
HETATM    2  C   UNL     1     -11.122  15.952  64.829  1.00  0.00    -0.384 C  
HETATM    3  H   UNL     1     -11.534  17.250  63.429  1.00  0.00     0.000 HD 
ENDROOT
BRANCH   2   4
HETATM    4  C   UNL     1     -11.480  14.494  65.127  1.00  0.00    -0.368 C  
BRANCH   4   5
HETATM    5  N   UNL     1     -10.356  13.537  65.062  1.00  0.00    -0.360 NA 
HETATM    6  C   UNL     1      -9.353  13.895  66.093  1.00  0.00    -0.098 C  
HETATM    7  C   UNL     1      -9.809  13.573  67.538  1.00  0.00    -0.227 C  
HETATM    8  N   UNL     1     -10.199  12.156  67.742  1.00  0.00    -0.197 NA 
HETATM    9  C   UNL     1     -11.209  11.803  66.725  1.00  0.00    -0.328 C  
HETATM   10  C   UNL     1     -10.775  12.132  65.278  1.00  0.00    -0.288 C  
BRANCH   8  11
HETATM   11  C   UNL     1      -9.051  11.226  67.694  1.00  0.00    -0.149 C  
BRANCH  11  12
HETATM   12  C   UNL     1      -8.811  10.644  69.090  1.00  0.00    -0.133 C  
BRANCH  12  13
HETATM   13  C   UNL     1      -8.960   9.170  69.275  1.00  0.00    -0.145 C  
HETATM   14  C   UNL     1      -9.952   8.470  69.899  1.00  0.00    -0.189 C  
HETATM   15  C   UNL     1      -9.763   6.954  69.930  1.00  0.00    -0.165 A  
HETATM   16  C   UNL     1      -8.783   6.283  69.157  1.00  0.00    -0.123 A  
HETATM   17  C   UNL     1      -8.581   4.899  69.221  1.00  0.00    -0.099 A  
HETATM   18  C   UNL     1      -9.381   4.125  70.036  1.00  0.00    -0.237 A  
HETATM   19  C   UNL     1     -10.374   4.742  70.784  1.00  0.00    -0.184 A  
HETATM   20  C   UNL     1     -10.568   6.142  70.744  1.00  0.00    -0.242 A  
HETATM   21  S   UNL     1     -11.866   6.714  71.802  1.00  0.00    -0.344 SA 
HETATM   22  C   UNL     1     -11.986   8.446  71.454  1.00  0.00    -0.297 A  
HETATM   23  C   UNL     1     -11.132   9.165  70.597  1.00  0.00    -0.320 A  
HETATM   24  C   UNL     1     -11.448  10.541  70.469  1.00  0.00    -0.433 A  
HETATM   25  C   UNL     1     -12.463  11.177  71.195  1.00  0.00    -0.393 A  
HETATM   26  C   UNL     1     -13.269  10.454  72.039  1.00  0.00    -0.497 A  
HETATM   27 CL   UNL     1     -12.682  12.881  71.046  1.00  0.00    -0.388 Cl 
HETATM   28  C   UNL     1     -13.042   9.090  72.152  1.00  0.00    -0.496 A  
ENDBRANCH  12  13
ENDBRANCH  11  12
ENDBRANCH   8  11
ENDBRANCH   4   5
ENDBRANCH   2   4
TORSDOF 5
ENDMDL
MODEL       18
REMARK 921   NORMALIZED FREE ENERGY PREDICTED BY IDOCK:   -6.63 KCAL/MOL
REMARK 922        TOTAL FREE ENERGY PREDICTED BY IDOCK:   -9.11 KCAL/MOL
REMARK 923 INTER-LIGAND FREE ENERGY PREDICTED BY IDOCK:   -8.38 KCAL/MOL
REMARK 924 INTRA-LIGAND FREE ENERGY PREDICTED BY IDOCK:   -0.73 KCAL/MOL
REMARK 927      BINDING AFFINITY PREDICTED BY RF-SCORE:    0.00 PKD
ROOT
HETATM    1  O   UNL     1      -8.749   6.988  64.570  1.00  0.00    -0.334 OA 
HETATM    2  C   UNL     1      -8.299   6.206  65.674  1.00  0.00    -0.146 C  
HETATM    3  H   UNL     1      -8.887   6.416  63.823  1.00  0.00     0.000 HD 
ENDROOT
BRANCH   2   4
HETATM    4  C   UNL     1      -8.078   7.126  66.877  1.00  0.00    -0.116 C  
BRANCH   4   5
HETATM    5  N   UNL     1      -9.061   6.992  67.970  1.00  0.00    -0.128 NA 
HETATM    6  C   UNL     1      -8.573   7.736  69.157  1.00  0.00    -0.138 C  
HETATM    7  C   UNL     1      -8.657   9.274  68.998  1.00  0.00    -0.134 C  
HETATM    8  N   UNL     1     -10.014   9.770  68.666  1.00  0.00    -0.162 NA 
HETATM    9  C   UNL     1     -10.494   9.041  67.476  1.00  0.00    -0.272 C  
HETATM   10  C   UNL     1     -10.405   7.504  67.612  1.00  0.00    -0.229 C  
BRANCH   8  11
HETATM   11  C   UNL     1     -10.969   9.644  69.787  1.00  0.00    -0.240 C  
BRANCH  11  12
HETATM   12  C   UNL     1     -12.166  10.568  69.541  1.00  0.00    -0.154 C  
BRANCH  12  13
HETATM   13  C   UNL     1     -12.275  11.813  70.359  1.00  0.00    -0.416 C  
HETATM   14  C   UNL     1     -12.099  13.113  69.985  1.00  0.00    -0.375 C  
HETATM   15  C   UNL     1     -12.259  14.142  71.104  1.00  0.00    -0.435 A  
HETATM   16  C   UNL     1     -12.800  13.823  72.374  1.00  0.00    -0.353 A  
HETATM   17  C   UNL     1     -12.904  14.756  73.413  1.00  0.00    -0.597 A  
HETATM   18  C   UNL     1     -12.502  16.060  73.207  1.00  0.00    -0.645 A  
HETATM   19  C   UNL     1     -11.997  16.419  71.965  1.00  0.00    -0.437 A  
HETATM   20  C   UNL     1     -11.865  15.477  70.920  1.00  0.00    -0.371 A  
HETATM   21  S   UNL     1     -11.168  16.146  69.438  1.00  0.00    -0.322 SA 
HETATM   22  C   UNL     1     -11.250  14.816  68.272  1.00  0.00    -0.286 A  
HETATM   23  C   UNL     1     -11.684  13.509  68.559  1.00  0.00    -0.392 A  
HETATM   24  C   UNL     1     -11.676  12.629  67.448  1.00  0.00    -0.432 A  
HETATM   25  C   UNL     1     -11.195  12.979  66.181  1.00  0.00    -0.291 A  
HETATM   26  C   UNL     1     -10.759  14.258  65.934  1.00  0.00    -0.304 A  
HETATM   27 CL   UNL     1     -11.125  11.791  64.933  1.00  0.00    -0.359 Cl 
HETATM   28  C   UNL     1     -10.806  15.177  66.972  1.00  0.00    -0.314 A  
ENDBRANCH  12  13
ENDBRANCH  11  12
ENDBRANCH   8  11
ENDBRANCH   4   5
ENDBRANCH   2   4
TORSDOF 5
ENDMDL
MODEL       19
REMARK 921   NORMALIZED FREE ENERGY PREDICTED BY IDOCK:   -6.61 KCAL/MOL
REMARK 922        TOTAL FREE ENERGY PREDICTED BY IDOCK:   -9.10 KCAL/MOL
REMARK 923 INTER-LIGAND FREE ENERGY PREDICTED BY IDOCK:   -8.61 KCAL/MOL
REMARK 924 INTRA-LIGAND FREE ENERGY PREDICTED BY IDOCK:   -0.48 KCAL/MOL
REMARK 927      BINDING AFFINITY PREDICTED BY RF-SCORE:    0.00 PKD
ROOT
HETATM    1  O   UNL     1     -10.616   3.938  72.710  1.00  0.00    -0.171 OA 
HETATM    2  C   UNL     1     -10.385   5.157  72.009  1.00  0.00    -0.214 C  
HETATM    3  H   UNL     1      -9.898   3.340  72.535  1.00  0.00     0.000 HD 
ENDROOT
BRANCH   2   4
HETATM    4  C   UNL     1     -11.542   6.119  72.291  1.00  0.00    -0.313 C  
BRANCH   4   5
HETATM    5  N   UNL     1     -12.085   6.824  71.113  1.00  0.00    -0.369 NA 
HETATM    6  C   UNL     1     -13.386   7.439  71.471  1.00  0.00    -0.372 C  
HETATM    7  C   UNL     1     -13.252   8.671  72.400  1.00  0.00    -0.346 C  
HETATM    8  N   UNL     1     -12.369   9.735  71.863  1.00  0.00    -0.368 NA 
HETATM    9  C   UNL     1     -11.069   9.127  71.519  1.00  0.00    -0.365 C  
HETATM   10  C   UNL     1     -11.185   7.886  70.603  1.00  0.00    -0.263 C  
BRANCH   8  11
HETATM   11  C   UNL     1     -12.949  10.438  70.699  1.00  0.00    -0.283 C  
BRANCH  11  12
HETATM   12  C   UNL     1     -12.007  11.564  70.264  1.00  0.00    -0.455 C  
BRANCH  12  13
HETATM   13  C   UNL     1     -11.572  11.607  68.836  1.00  0.00    -0.377 C  
HETATM   14  C   UNL     1     -11.166  12.671  68.085  1.00  0.00    -0.311 C  
HETATM   15  C   UNL     1     -10.821  12.351  66.630  1.00  0.00    -0.281 A  
HETATM   16  C   UNL     1     -10.674  11.028  66.146  1.00  0.00    -0.257 A  
HETATM   17  C   UNL     1     -10.402  10.736  64.803  1.00  0.00    -0.380 A  
HETATM   18  C   UNL     1     -10.229  11.763  63.899  1.00  0.00    -0.411 A  
HETATM   19  C   UNL     1     -10.333  13.074  64.343  1.00  0.00    -0.397 A  
HETATM   20  C   UNL     1     -10.632  13.377  65.690  1.00  0.00    -0.282 A  
HETATM   21  S   UNL     1     -10.749  15.111  66.025  1.00  0.00    -0.339 SA 
HETATM   22  C   UNL     1     -10.983  15.206  67.778  1.00  0.00    -0.306 A  
HETATM   23  C   UNL     1     -11.142  14.105  68.639  1.00  0.00    -0.283 A  
HETATM   24  C   UNL     1     -11.294  14.444  70.007  1.00  0.00    -0.253 A  
HETATM   25  C   UNL     1     -11.375  15.760  70.478  1.00  0.00    -0.380 A  
HETATM   26  C   UNL     1     -11.235  16.816  69.612  1.00  0.00     0.084 A  
HETATM   27 CL   UNL     1     -11.678  16.052  72.150  1.00  0.00    -0.578 Cl 
HETATM   28  C   UNL     1     -11.020  16.538  68.270  1.00  0.00    -0.346 A  
ENDBRANCH  12  13
ENDBRANCH  11  12
ENDBRANCH   8  11
ENDBRANCH   4   5
ENDBRANCH   2   4
TORSDOF 5
ENDMDL
MODEL       20
REMARK 921   NORMALIZED FREE ENERGY PREDICTED BY IDOCK:   -6.54 KCAL/MOL
REMARK 922        TOTAL FREE ENERGY PREDICTED BY IDOCK:   -9.00 KCAL/MOL
REMARK 923 INTER-LIGAND FREE ENERGY PREDICTED BY IDOCK:   -8.38 KCAL/MOL
REMARK 924 INTRA-LIGAND FREE ENERGY PREDICTED BY IDOCK:   -0.63 KCAL/MOL
REMARK 927      BINDING AFFINITY PREDICTED BY RF-SCORE:    0.00 PKD
ROOT
HETATM    1  O   UNL     1     -13.610  16.334  73.804  1.00  0.00    -0.927 OA 
HETATM    2  C   UNL     1     -12.563  15.499  73.316  1.00  0.00    -0.499 C  
HETATM    3  H   UNL     1     -13.931  15.979  74.625  1.00  0.00     0.000 HD 
ENDROOT
BRANCH   2   4
HETATM    4  C   UNL     1     -12.047  16.072  71.994  1.00  0.00    -0.525 C  
BRANCH   4   5
HETATM    5  N   UNL     1     -11.055  15.239  71.284  1.00  0.00    -0.318 NA 
HETATM    6  C   UNL     1     -11.722  14.017  70.774  1.00  0.00    -0.118 C  
HETATM    7  C   UNL     1     -12.660  14.282  69.570  1.00  0.00     0.013 C  
HETATM    8  N   UNL     1     -11.997  14.959  68.430  1.00  0.00    -0.268 NA 
HETATM    9  C   UNL     1     -11.345  16.183  68.934  1.00  0.00    -0.350 C  
HETATM   10  C   UNL     1     -10.415  15.938  70.145  1.00  0.00    -0.244 C  
BRANCH   8  11
HETATM   11  C   UNL     1     -11.027  14.093  67.726  1.00  0.00    -0.262 C  
BRANCH  11  12
HETATM   12  C   UNL     1     -11.758  12.882  67.139  1.00  0.00    -0.437 C  
BRANCH  12  13
HETATM   13  C   UNL     1     -10.964  11.892  66.353  1.00  0.00    -0.337 C  
HETATM   14  C   UNL     1     -10.523  10.652  66.713  1.00  0.00    -0.303 C  
HETATM   15  C   UNL     1      -9.699   9.918  65.656  1.00  0.00    -0.346 A  
HETATM   16  C   UNL     1      -9.606  10.354  64.311  1.00  0.00    -0.377 A  
HETATM   17  C   UNL     1      -8.814   9.707  63.355  1.00  0.00    -0.251 A  
HETATM   18  C   UNL     1      -8.112   8.570  63.700  1.00  0.00    -0.154 A  
HETATM   19  C   UNL     1      -8.204   8.093  65.001  1.00  0.00    -0.157 A  
HETATM   20  C   UNL     1      -8.981   8.756  65.978  1.00  0.00    -0.192 A  
HETATM   21  S   UNL     1      -8.926   7.992  67.573  1.00  0.00    -0.138 SA 
HETATM   22  C   UNL     1     -10.076   8.922  68.547  1.00  0.00    -0.188 A  
HETATM   23  C   UNL     1     -10.764  10.071  68.116  1.00  0.00    -0.282 A  
HETATM   24  C   UNL     1     -11.646  10.624  69.078  1.00  0.00    -0.332 A  
HETATM   25  C   UNL     1     -11.773  10.142  70.386  1.00  0.00    -0.308 A  
HETATM   26  C   UNL     1     -11.074   9.029  70.785  1.00  0.00    -0.328 A  
HETATM   27 CL   UNL     1     -12.792  10.966  71.507  1.00  0.00    -0.546 Cl 
HETATM   28  C   UNL     1     -10.244   8.411  69.861  1.00  0.00    -0.201 A  
ENDBRANCH  12  13
ENDBRANCH  11  12
ENDBRANCH   8  11
ENDBRANCH   4   5
ENDBRANCH   2   4
TORSDOF 5
ENDMDL
MODEL       21
REMARK 921   NORMALIZED FREE ENERGY PREDICTED BY IDOCK:   -6.53 KCAL/MOL
REMARK 922        TOTAL FREE ENERGY PREDICTED BY IDOCK:   -9.00 KCAL/MOL
REMARK 923 INTER-LIGAND FREE ENERGY PREDICTED BY IDOCK:   -8.33 KCAL/MOL
REMARK 924 INTRA-LIGAND FREE ENERGY PREDICTED BY IDOCK:   -0.66 KCAL/MOL
REMARK 927      BINDING AFFINITY PREDICTED BY RF-SCORE:    0.00 PKD
ROOT
HETATM    1  O   UNL     1      -7.195  19.967  67.834  1.00  0.00    -0.267 OA 
HETATM    2  C   UNL     1      -6.931  18.589  68.090  1.00  0.00    -0.236 C  
HETATM    3  H   UNL     1      -6.369  20.426  67.734  1.00  0.00     0.000 HD 
ENDROOT
BRANCH   2   4
HETATM    4  C   UNL     1      -8.262  17.850  68.251  1.00  0.00    -0.290 C  
BRANCH   4   5
HETATM    5  N   UNL     1      -9.069  17.719  67.021  1.00  0.00    -0.246 NA 
HETATM    6  C   UNL     1      -8.560  16.576  66.225  1.00  0.00    -0.332 C  
HETATM    7  C   UNL     1      -8.899  15.195  66.838  1.00  0.00    -0.256 C  
HETATM    8  N   UNL     1     -10.348  14.985  67.076  1.00  0.00    -0.265 NA 
HETATM    9  C   UNL     1     -10.853  16.113  67.882  1.00  0.00    -0.332 C  
HETATM   10  C   UNL     1     -10.510  17.501  67.291  1.00  0.00    -0.327 C  
BRANCH   8  11
HETATM   11  C   UNL     1     -11.126  14.834  65.829  1.00  0.00    -0.338 C  
BRANCH  11  12
HETATM   12  C   UNL     1     -11.834  13.475  65.832  1.00  0.00    -0.405 C  
BRANCH  12  13
HETATM   13  C   UNL     1     -11.826  12.679  67.096  1.00  0.00    -0.399 C  
HETATM   14  C   UNL     1     -11.182  11.511  67.380  1.00  0.00    -0.367 C  
HETATM   15  C   UNL     1     -11.428  10.953  68.782  1.00  0.00    -0.376 A  
HETATM   16  C   UNL     1     -12.059  11.699  69.808  1.00  0.00    -0.357 A  
HETATM   17  C   UNL     1     -12.325  11.170  71.078  1.00  0.00    -0.487 A  
HETATM   18  C   UNL     1     -11.934   9.882  71.381  1.00  0.00    -0.489 A  
HETATM   19  C   UNL     1     -11.284   9.132  70.411  1.00  0.00    -0.279 A  
HETATM   20  C   UNL     1     -11.034   9.649  69.120  1.00  0.00    -0.151 A  
HETATM   21  S   UNL     1     -10.224   8.508  68.037  1.00  0.00    -0.214 SA 
HETATM   22  C   UNL     1      -9.911   9.443  66.567  1.00  0.00    -0.258 A  
HETATM   23  C   UNL     1     -10.336  10.764  66.336  1.00  0.00    -0.306 A  
HETATM   24  C   UNL     1      -9.941  11.301  65.085  1.00  0.00    -0.312 A  
HETATM   25  C   UNL     1      -9.262  10.569  64.104  1.00  0.00    -0.249 A  
HETATM   26  C   UNL     1      -8.875   9.274  64.349  1.00  0.00    -0.197 A  
HETATM   27 CL   UNL     1      -8.934  11.289  62.572  1.00  0.00    -0.354 Cl 
HETATM   28  C   UNL     1      -9.182   8.722  65.584  1.00  0.00    -0.244 A  
ENDBRANCH  12  13
ENDBRANCH  11  12
ENDBRANCH   8  11
ENDBRANCH   4   5
ENDBRANCH   2   4
TORSDOF 5
ENDMDL
MODEL       22
REMARK 921   NORMALIZED FREE ENERGY PREDICTED BY IDOCK:   -6.52 KCAL/MOL
REMARK 922        TOTAL FREE ENERGY PREDICTED BY IDOCK:   -8.98 KCAL/MOL
REMARK 923 INTER-LIGAND FREE ENERGY PREDICTED BY IDOCK:   -8.40 KCAL/MOL
REMARK 924 INTRA-LIGAND FREE ENERGY PREDICTED BY IDOCK:   -0.58 KCAL/MOL
REMARK 927      BINDING AFFINITY PREDICTED BY RF-SCORE:    0.00 PKD
ROOT
HETATM    1  O   UNL     1     -12.490  14.190  63.127  1.00  0.00    -1.126 OA 
HETATM    2  C   UNL     1     -12.346  12.819  63.488  1.00  0.00    -0.467 C  
HETATM    3  H   UNL     1     -12.322  14.284  62.197  1.00  0.00     0.000 HD 
ENDROOT
BRANCH   2   4
HETATM    4  C   UNL     1     -12.617  12.668  64.986  1.00  0.00    -0.430 C  
BRANCH   4   5
HETATM    5  N   UNL     1     -11.569  13.202  65.880  1.00  0.00    -0.338 NA 
HETATM    6  C   UNL     1     -11.781  12.673  67.248  1.00  0.00    -0.370 C  
HETATM    7  C   UNL     1     -11.423  11.173  67.393  1.00  0.00    -0.180 C  
HETATM    8  N   UNL     1     -10.038  10.844  66.978  1.00  0.00    -0.198 NA 
HETATM    9  C   UNL     1      -9.831  11.357  65.610  1.00  0.00    -0.235 C  
HETATM   10  C   UNL     1     -10.196  12.850  65.445  1.00  0.00    -0.287 C  
BRANCH   8  11
HETATM   11  C   UNL     1      -9.013  11.372  67.903  1.00  0.00    -0.153 C  
BRANCH  11  12
HETATM   12  C   UNL     1      -9.181  10.715  69.277  1.00  0.00    -0.121 C  
BRANCH  12  13
HETATM   13  C   UNL     1      -9.216   9.224  69.346  1.00  0.00    -0.159 C  
HETATM   14  C   UNL     1     -10.135   8.405  69.933  1.00  0.00    -0.195 C  
HETATM   15  C   UNL     1      -9.833   6.909  69.838  1.00  0.00    -0.172 A  
HETATM   16  C   UNL     1      -8.828   6.378  68.992  1.00  0.00    -0.129 A  
HETATM   17  C   UNL     1      -8.522   5.012  68.940  1.00  0.00    -0.088 A  
HETATM   18  C   UNL     1      -9.240   4.118  69.708  1.00  0.00    -0.213 A  
HETATM   19  C   UNL     1     -10.255   4.597  70.524  1.00  0.00    -0.211 A  
HETATM   20  C   UNL     1     -10.553   5.977  70.602  1.00  0.00    -0.260 A  
HETATM   21  S   UNL     1     -11.860   6.364  71.730  1.00  0.00    -0.291 SA 
HETATM   22  C   UNL     1     -12.117   8.104  71.525  1.00  0.00    -0.298 A  
HETATM   23  C   UNL     1     -11.344   8.950  70.710  1.00  0.00    -0.325 A  
HETATM   24  C   UNL     1     -11.765  10.304  70.700  1.00  0.00    -0.438 A  
HETATM   25  C   UNL     1     -12.803  10.802  71.497  1.00  0.00    -0.462 A  
HETATM   26  C   UNL     1     -13.529   9.955  72.298  1.00  0.00    -0.397 A  
HETATM   27 CL   UNL     1     -13.152  12.491  71.490  1.00  0.00    -0.441 Cl 
HETATM   28  C   UNL     1     -13.199   8.608  72.295  1.00  0.00    -0.410 A  
ENDBRANCH  12  13
ENDBRANCH  11  12
ENDBRANCH   8  11
ENDBRANCH   4   5
ENDBRANCH   2   4
TORSDOF 5
ENDMDL
MODEL       23
REMARK 921   NORMALIZED FREE ENERGY PREDICTED BY IDOCK:   -6.52 KCAL/MOL
REMARK 922        TOTAL FREE ENERGY PREDICTED BY IDOCK:   -8.98 KCAL/MOL
REMARK 923 INTER-LIGAND FREE ENERGY PREDICTED BY IDOCK:   -8.46 KCAL/MOL
REMARK 924 INTRA-LIGAND FREE ENERGY PREDICTED BY IDOCK:   -0.52 KCAL/MOL
REMARK 927      BINDING AFFINITY PREDICTED BY RF-SCORE:    0.00 PKD
ROOT
HETATM    1  O   UNL     1     -11.587  16.219  63.875  1.00  0.00    -1.489 OA 
HETATM    2  C   UNL     1     -12.251  15.006  64.220  1.00  0.00    -0.293 C  
HETATM    3  H   UNL     1     -11.872  16.492  63.010  1.00  0.00     0.000 HD 
ENDROOT
BRANCH   2   4
HETATM    4  C   UNL     1     -11.793  14.567  65.613  1.00  0.00    -0.326 C  
BRANCH   4   5
HETATM    5  N   UNL     1     -12.166  13.193  66.002  1.00  0.00    -0.429 NA 
HETATM    6  C   UNL     1     -11.475  12.230  65.111  1.00  0.00    -0.341 C  
HETATM    7  C   UNL     1      -9.956  12.113  65.389  1.00  0.00    -0.246 C  
HETATM    8  N   UNL     1      -9.628  11.763  66.793  1.00  0.00    -0.196 NA 
HETATM    9  C   UNL     1     -10.304  12.730  67.680  1.00  0.00    -0.221 C  
HETATM   10  C   UNL     1     -11.819  12.870  67.406  1.00  0.00    -0.360 C  
BRANCH   8  11
HETATM   11  C   UNL     1      -9.992  10.375  67.146  1.00  0.00    -0.195 C  
BRANCH  11  12
HETATM   12  C   UNL     1      -9.188   9.935  68.373  1.00  0.00    -0.130 C  
BRANCH  12  13
HETATM   13  C   UNL     1      -9.238   8.496  68.769  1.00  0.00    -0.142 C  
HETATM   14  C   UNL     1     -10.066   7.869  69.654  1.00  0.00    -0.197 C  
HETATM   15  C   UNL     1      -9.810   6.373  69.842  1.00  0.00    -0.191 A  
HETATM   16  C   UNL     1      -8.963   5.623  68.989  1.00  0.00    -0.117 A  
HETATM   17  C   UNL     1      -8.694   4.263  69.190  1.00  0.00    -0.120 A  
HETATM   18  C   UNL     1      -9.295   3.591  70.234  1.00  0.00    -0.242 A  
HETATM   19  C   UNL     1     -10.158   4.285  71.071  1.00  0.00    -0.165 A  
HETATM   20  C   UNL     1     -10.414   5.663  70.891  1.00  0.00    -0.256 A  
HETATM   21  S   UNL     1     -11.517   6.349  72.093  1.00  0.00    -0.311 SA 
HETATM   22  C   UNL     1     -11.772   8.017  71.556  1.00  0.00    -0.284 A  
HETATM   23  C   UNL     1     -11.124   8.629  70.468  1.00  0.00    -0.268 A  
HETATM   24  C   UNL     1     -11.517   9.970  70.228  1.00  0.00    -0.372 A  
HETATM   25  C   UNL     1     -12.405  10.680  71.046  1.00  0.00    -0.403 A  
HETATM   26  C   UNL     1     -13.009  10.061  72.114  1.00  0.00    -0.460 A  
HETATM   27 CL   UNL     1     -12.720  12.344  70.725  1.00  0.00    -0.270 Cl 
HETATM   28  C   UNL     1     -12.707   8.729  72.354  1.00  0.00    -0.433 A  
ENDBRANCH  12  13
ENDBRANCH  11  12
ENDBRANCH   8  11
ENDBRANCH   4   5
ENDBRANCH   2   4
TORSDOF 5
ENDMDL
MODEL       24
REMARK 921   NORMALIZED FREE ENERGY PREDICTED BY IDOCK:   -6.49 KCAL/MOL
REMARK 922        TOTAL FREE ENERGY PREDICTED BY IDOCK:   -8.94 KCAL/MOL
REMARK 923 INTER-LIGAND FREE ENERGY PREDICTED BY IDOCK:   -8.18 KCAL/MOL
REMARK 924 INTRA-LIGAND FREE ENERGY PREDICTED BY IDOCK:   -0.76 KCAL/MOL
REMARK 927      BINDING AFFINITY PREDICTED BY RF-SCORE:    0.00 PKD
ROOT
HETATM    1  O   UNL     1     -14.221   8.849  73.428  1.00  0.00    -1.241 OA 
HETATM    2  C   UNL     1     -14.396   8.635  72.030  1.00  0.00    -0.422 C  
HETATM    3  H   UNL     1     -14.979   9.310  73.767  1.00  0.00     0.000 HD 
ENDROOT
BRANCH   2   4
HETATM    4  C   UNL     1     -13.174   7.892  71.484  1.00  0.00    -0.306 C  
BRANCH   4   5
HETATM    5  N   UNL     1     -11.864   8.421  71.914  1.00  0.00    -0.312 NA 
HETATM    6  C   UNL     1     -10.786   7.621  71.282  1.00  0.00    -0.231 C  
HETATM    7  C   UNL     1     -10.625   7.892  69.766  1.00  0.00    -0.242 C  
HETATM    8  N   UNL     1     -10.400   9.319  69.431  1.00  0.00    -0.209 NA 
HETATM    9  C   UNL     1     -11.480  10.113  70.047  1.00  0.00    -0.277 C  
HETATM   10  C   UNL     1     -11.665   9.846  71.559  1.00  0.00    -0.337 C  
BRANCH   8  11
HETATM   11  C   UNL     1      -9.072   9.812  69.854  1.00  0.00    -0.229 C  
BRANCH  11  12
HETATM   12  C   UNL     1      -8.592  10.884  68.870  1.00  0.00    -0.143 C  
BRANCH  12  13
HETATM   13  C   UNL     1      -8.498  10.523  67.424  1.00  0.00    -0.122 C  
HETATM   14  C   UNL     1      -9.180  11.032  66.358  1.00  0.00    -0.192 C  
HETATM   15  C   UNL     1      -8.851  10.396  65.007  1.00  0.00    -0.209 A  
HETATM   16  C   UNL     1      -7.747   9.530  64.812  1.00  0.00    -0.119 A  
HETATM   17  C   UNL     1      -7.474   8.912  63.585  1.00  0.00    -0.105 A  
HETATM   18  C   UNL     1      -8.277   9.168  62.493  1.00  0.00    -0.163 A  
HETATM   19  C   UNL     1      -9.350  10.038  62.637  1.00  0.00    -0.296 A  
HETATM   20  C   UNL     1      -9.647  10.645  63.878  1.00  0.00    -0.306 A  
HETATM   21  S   UNL     1     -11.076  11.688  63.840  1.00  0.00    -0.395 SA 
HETATM   22  C   UNL     1     -11.132  12.418  65.452  1.00  0.00    -0.306 A  
HETATM   23  C   UNL     1     -10.265  12.109  66.516  1.00  0.00    -0.230 A  
HETATM   24  C   UNL     1     -10.503  12.846  67.703  1.00  0.00    -0.228 A  
HETATM   25  C   UNL     1     -11.563  13.747  67.860  1.00  0.00    -0.341 A  
HETATM   26  C   UNL     1     -12.406  14.016  66.810  1.00  0.00    -0.368 A  
HETATM   27 CL   UNL     1     -11.826  14.501  69.388  1.00  0.00    -0.345 Cl 
HETATM   28  C   UNL     1     -12.178  13.368  65.605  1.00  0.00    -0.510 A  
ENDBRANCH  12  13
ENDBRANCH  11  12
ENDBRANCH   8  11
ENDBRANCH   4   5
ENDBRANCH   2   4
TORSDOF 5
ENDMDL
MODEL       25
REMARK 921   NORMALIZED FREE ENERGY PREDICTED BY IDOCK:   -6.45 KCAL/MOL
REMARK 922        TOTAL FREE ENERGY PREDICTED BY IDOCK:   -8.88 KCAL/MOL
REMARK 923 INTER-LIGAND FREE ENERGY PREDICTED BY IDOCK:   -8.28 KCAL/MOL
REMARK 924 INTRA-LIGAND FREE ENERGY PREDICTED BY IDOCK:   -0.60 KCAL/MOL
REMARK 927      BINDING AFFINITY PREDICTED BY RF-SCORE:    0.00 PKD
ROOT
HETATM    1  O   UNL     1     -14.232   8.900  73.380  1.00  0.00    -1.241 OA 
HETATM    2  C   UNL     1     -14.166   8.710  71.969  1.00  0.00    -0.443 C  
HETATM    3  H   UNL     1     -15.051   9.330  73.596  1.00  0.00     0.000 HD 
ENDROOT
BRANCH   2   4
HETATM    4  C   UNL     1     -12.847   8.016  71.621  1.00  0.00    -0.329 C  
BRANCH   4   5
HETATM    5  N   UNL     1     -11.625   8.802  71.890  1.00  0.00    -0.338 NA 
HETATM    6  C   UNL     1     -10.456   8.094  71.315  1.00  0.00    -0.209 C  
HETATM    7  C   UNL     1     -10.397   8.152  69.768  1.00  0.00    -0.216 C  
HETATM    8  N   UNL     1     -10.422   9.529  69.219  1.00  0.00    -0.205 NA 
HETATM    9  C   UNL     1     -11.593  10.230  69.778  1.00  0.00    -0.227 C  
HETATM   10  C   UNL     1     -11.675  10.170  71.321  1.00  0.00    -0.341 C  
BRANCH   8  11
HETATM   11  C   UNL     1      -9.178  10.282  69.483  1.00  0.00    -0.170 C  
BRANCH  11  12
HETATM   12  C   UNL     1      -8.483  10.599  68.155  1.00  0.00    -0.122 C  
BRANCH  12  13
HETATM   13  C   UNL     1      -9.305  11.174  67.049  1.00  0.00    -0.182 C  
HETATM   14  C   UNL     1      -9.478  12.477  66.685  1.00  0.00    -0.242 C  
HETATM   15  C   UNL     1     -10.428  12.708  65.510  1.00  0.00    -0.304 A  
HETATM   16  C   UNL     1     -10.900  11.658  64.683  1.00  0.00    -0.373 A  
HETATM   17  C   UNL     1     -11.807  11.865  63.636  1.00  0.00    -0.573 A  
HETATM   18  C   UNL     1     -12.247  13.141  63.351  1.00  0.00    -0.521 A  
HETATM   19  C   UNL     1     -11.781  14.200  64.118  1.00  0.00    -0.306 A  
HETATM   20  C   UNL     1     -10.887  13.996  65.193  1.00  0.00    -0.369 A  
HETATM   21  S   UNL     1     -10.452  15.481  66.053  1.00  0.00    -0.340 SA 
HETATM   22  C   UNL     1      -9.235  14.967  67.231  1.00  0.00    -0.204 A  
HETATM   23  C   UNL     1      -8.830  13.638  67.456  1.00  0.00    -0.205 A  
HETATM   24  C   UNL     1      -7.823  13.489  68.442  1.00  0.00    -0.143 A  
HETATM   25  C   UNL     1      -7.321  14.547  69.209  1.00  0.00    -0.126 A  
HETATM   26  C   UNL     1      -7.749  15.832  68.981  1.00  0.00    -0.202 A  
HETATM   27 CL   UNL     1      -6.180  14.230  70.463  1.00  0.00    -0.179 Cl 
HETATM   28  C   UNL     1      -8.688  16.041  67.982  1.00  0.00    -0.171 A  
ENDBRANCH  12  13
ENDBRANCH  11  12
ENDBRANCH   8  11
ENDBRANCH   4   5
ENDBRANCH   2   4
TORSDOF 5
ENDMDL
MODEL       26
REMARK 921   NORMALIZED FREE ENERGY PREDICTED BY IDOCK:   -6.43 KCAL/MOL
REMARK 922        TOTAL FREE ENERGY PREDICTED BY IDOCK:   -8.86 KCAL/MOL
REMARK 923 INTER-LIGAND FREE ENERGY PREDICTED BY IDOCK:   -8.15 KCAL/MOL
REMARK 924 INTRA-LIGAND FREE ENERGY PREDICTED BY IDOCK:   -0.71 KCAL/MOL
REMARK 927      BINDING AFFINITY PREDICTED BY RF-SCORE:    0.00 PKD
ROOT
HETATM    1  O   UNL     1      -9.465  20.474  66.455  1.00  0.00    -0.612 OA 
HETATM    2  C   UNL     1      -8.586  19.376  66.686  1.00  0.00    -0.329 C  
HETATM    3  H   UNL     1      -9.014  21.282  66.671  1.00  0.00     0.000 HD 
ENDROOT
BRANCH   2   4
HETATM    4  C   UNL     1      -9.314  18.075  66.338  1.00  0.00    -0.255 C  
BRANCH   4   5
HETATM    5  N   UNL     1      -8.908  16.890  67.120  1.00  0.00    -0.201 NA 
HETATM    6  C   UNL     1      -9.376  17.046  68.518  1.00  0.00    -0.265 C  
HETATM    7  C   UNL     1     -10.907  16.878  68.679  1.00  0.00    -0.314 C  
HETATM    8  N   UNL     1     -11.428  15.592  68.157  1.00  0.00    -0.341 NA 
HETATM    9  C   UNL     1     -10.976  15.443  66.760  1.00  0.00    -0.282 C  
HETATM   10  C   UNL     1      -9.450  15.621  66.579  1.00  0.00    -0.274 C  
BRANCH   8  11
HETATM   11  C   UNL     1     -11.024  14.427  68.972  1.00  0.00    -0.256 C  
BRANCH  11  12
HETATM   12  C   UNL     1     -11.846  13.204  68.554  1.00  0.00    -0.377 C  
BRANCH  12  13
HETATM   13  C   UNL     1     -11.600  11.913  69.262  1.00  0.00    -0.376 C  
HETATM   14  C   UNL     1     -11.012  10.770  68.803  1.00  0.00    -0.295 C  
HETATM   15  C   UNL     1     -10.956   9.616  69.804  1.00  0.00    -0.266 A  
HETATM   16  C   UNL     1     -11.246   9.776  71.182  1.00  0.00    -0.444 A  
HETATM   17  C   UNL     1     -11.238   8.709  72.089  1.00  0.00    -0.438 A  
HETATM   18  C   UNL     1     -10.901   7.443  71.657  1.00  0.00    -0.246 A  
HETATM   19  C   UNL     1     -10.579   7.253  70.320  1.00  0.00    -0.243 A  
HETATM   20  C   UNL     1     -10.609   8.319  69.393  1.00  0.00    -0.196 A  
HETATM   21  S   UNL     1     -10.196   7.843  67.740  1.00  0.00    -0.228 SA 
HETATM   22  C   UNL     1     -10.171   9.365  66.836  1.00  0.00    -0.248 A  
HETATM   23  C   UNL     1     -10.520  10.625  67.355  1.00  0.00    -0.280 A  
HETATM   24  C   UNL     1     -10.397  11.696  66.433  1.00  0.00    -0.266 A  
HETATM   25  C   UNL     1     -10.048  11.529  65.087  1.00  0.00    -0.268 A  
HETATM   26  C   UNL     1      -9.731  10.283  64.604  1.00  0.00    -0.398 A  
HETATM   27 CL   UNL     1     -10.044  12.889  64.029  1.00  0.00    -0.284 Cl 
HETATM   28  C   UNL     1      -9.773   9.209  65.481  1.00  0.00    -0.171 A  
ENDBRANCH  12  13
ENDBRANCH  11  12
ENDBRANCH   8  11
ENDBRANCH   4   5
ENDBRANCH   2   4
TORSDOF 5
ENDMDL
MODEL       27
REMARK 921   NORMALIZED FREE ENERGY PREDICTED BY IDOCK:   -6.39 KCAL/MOL
REMARK 922        TOTAL FREE ENERGY PREDICTED BY IDOCK:   -8.81 KCAL/MOL
REMARK 923 INTER-LIGAND FREE ENERGY PREDICTED BY IDOCK:   -8.09 KCAL/MOL
REMARK 924 INTRA-LIGAND FREE ENERGY PREDICTED BY IDOCK:   -0.72 KCAL/MOL
REMARK 927      BINDING AFFINITY PREDICTED BY RF-SCORE:    0.00 PKD
ROOT
HETATM    1  O   UNL     1     -12.614  14.061  63.116  1.00  0.00    -1.062 OA 
HETATM    2  C   UNL     1     -11.808  13.958  64.287  1.00  0.00    -0.412 C  
HETATM    3  H   UNL     1     -13.271  14.734  63.252  1.00  0.00     0.000 HD 
ENDROOT
BRANCH   2   4
HETATM    4  C   UNL     1     -10.749  12.874  64.068  1.00  0.00    -0.399 C  
BRANCH   4   5
HETATM    5  N   UNL     1     -11.026  11.575  64.713  1.00  0.00    -0.298 NA 
HETATM    6  C   UNL     1     -10.011  10.588  64.271  1.00  0.00    -0.331 C  
HETATM    7  C   UNL     1      -8.610  10.824  64.886  1.00  0.00    -0.092 C  
HETATM    8  N   UNL     1      -8.604  10.863  66.368  1.00  0.00    -0.155 NA 
HETATM    9  C   UNL     1      -9.602  11.856  66.809  1.00  0.00    -0.204 C  
HETATM   10  C   UNL     1     -11.005  11.643  66.193  1.00  0.00    -0.288 C  
BRANCH   8  11
HETATM   11  C   UNL     1      -8.860   9.544  66.984  1.00  0.00    -0.127 C  
BRANCH  11  12
HETATM   12  C   UNL     1      -8.849   9.685  68.509  1.00  0.00    -0.124 C  
BRANCH  12  13
HETATM   13  C   UNL     1      -9.268   8.509  69.329  1.00  0.00    -0.153 C  
HETATM   14  C   UNL     1     -10.311   8.387  70.200  1.00  0.00    -0.214 C  
HETATM   15  C   UNL     1     -10.423   7.032  70.900  1.00  0.00    -0.233 A  
HETATM   16  C   UNL     1      -9.677   5.895  70.503  1.00  0.00    -0.217 A  
HETATM   17  C   UNL     1      -9.747   4.668  71.174  1.00  0.00    -0.252 A  
HETATM   18  C   UNL     1     -10.599   4.520  72.249  1.00  0.00    -0.173 A  
HETATM   19  C   UNL     1     -11.370   5.603  72.648  1.00  0.00    -0.356 A  
HETATM   20  C   UNL     1     -11.287   6.853  71.992  1.00  0.00    -0.265 A  
HETATM   21  S   UNL     1     -12.334   8.097  72.689  1.00  0.00    -0.040 SA 
HETATM   22  C   UNL     1     -12.143   9.488  71.609  1.00  0.00    -0.398 A  
HETATM   23  C   UNL     1     -11.255   9.557  70.520  1.00  0.00    -0.345 A  
HETATM   24  C   UNL     1     -11.304  10.775  69.796  1.00  0.00    -0.372 A  
HETATM   25  C   UNL     1     -12.095  11.869  70.167  1.00  0.00    -0.302 A  
HETATM   26  C   UNL     1     -12.939  11.780  71.246  1.00  0.00    -0.353 A  
HETATM   27 CL   UNL     1     -11.987  13.343  69.278  1.00  0.00    -0.372 Cl 
HETATM   28  C   UNL     1     -12.976  10.586  71.952  1.00  0.00    -0.553 A  
ENDBRANCH  12  13
ENDBRANCH  11  12
ENDBRANCH   8  11
ENDBRANCH   4   5
ENDBRANCH   2   4
TORSDOF 5
ENDMDL
MODEL       28
REMARK 921   NORMALIZED FREE ENERGY PREDICTED BY IDOCK:   -6.38 KCAL/MOL
REMARK 922        TOTAL FREE ENERGY PREDICTED BY IDOCK:   -8.80 KCAL/MOL
REMARK 923 INTER-LIGAND FREE ENERGY PREDICTED BY IDOCK:   -8.34 KCAL/MOL
REMARK 924 INTRA-LIGAND FREE ENERGY PREDICTED BY IDOCK:   -0.46 KCAL/MOL
REMARK 927      BINDING AFFINITY PREDICTED BY RF-SCORE:    0.00 PKD
ROOT
HETATM    1  O   UNL     1      -8.575  20.190  65.986  1.00  0.00    -0.539 OA 
HETATM    2  C   UNL     1      -8.919  20.007  67.357  1.00  0.00    -0.347 C  
HETATM    3  H   UNL     1      -8.461  21.118  65.817  1.00  0.00     0.000 HD 
ENDROOT
BRANCH   2   4
HETATM    4  C   UNL     1      -9.102  18.512  67.628  1.00  0.00    -0.281 C  
BRANCH   4   5
HETATM    5  N   UNL     1     -10.415  17.951  67.249  1.00  0.00    -0.373 NA 
HETATM    6  C   UNL     1     -10.252  17.103  66.044  1.00  0.00    -0.321 C  
HETATM    7  C   UNL     1      -9.533  15.761  66.325  1.00  0.00    -0.317 C  
HETATM    8  N   UNL     1     -10.178  14.945  67.382  1.00  0.00    -0.233 NA 
HETATM    9  C   UNL     1     -10.327  15.783  68.587  1.00  0.00    -0.225 C  
HETATM   10  C   UNL     1     -11.031  17.134  68.321  1.00  0.00    -0.229 C  
BRANCH   8  11
HETATM   11  C   UNL     1     -11.479  14.379  66.966  1.00  0.00    -0.361 C  
BRANCH  11  12
HETATM   12  C   UNL     1     -11.660  12.998  67.603  1.00  0.00    -0.403 C  
BRANCH  12  13
HETATM   13  C   UNL     1     -10.912  11.847  67.014  1.00  0.00    -0.326 C  
HETATM   14  C   UNL     1     -10.662  10.615  67.544  1.00  0.00    -0.321 C  
HETATM   15  C   UNL     1      -9.826   9.683  66.666  1.00  0.00    -0.285 A  
HETATM   16  C   UNL     1      -9.543   9.955  65.305  1.00  0.00    -0.361 A  
HETATM   17  C   UNL     1      -8.739   9.124  64.514  1.00  0.00    -0.192 A  
HETATM   18  C   UNL     1      -8.217   7.964  65.048  1.00  0.00    -0.134 A  
HETATM   19  C   UNL     1      -8.500   7.647  66.370  1.00  0.00    -0.137 A  
HETATM   20  C   UNL     1      -9.289   8.493  67.182  1.00  0.00    -0.152 A  
HETATM   21  S   UNL     1      -9.492   7.909  68.839  1.00  0.00    -0.151 SA 
HETATM   22  C   UNL     1     -10.617   9.060  69.577  1.00  0.00    -0.225 A  
HETATM   23  C   UNL     1     -11.115  10.221  68.959  1.00  0.00    -0.277 A  
HETATM   24  C   UNL     1     -12.020  10.969  69.753  1.00  0.00    -0.428 A  
HETATM   25  C   UNL     1     -12.338  10.652  71.079  1.00  0.00    -0.403 A  
HETATM   26  C   UNL     1     -11.822   9.521  71.664  1.00  0.00    -0.468 A  
HETATM   27 CL   UNL     1     -13.362  11.700  71.988  1.00  0.00    -0.534 Cl 
HETATM   28  C   UNL     1     -10.981   8.719  70.908  1.00  0.00    -0.315 A  
ENDBRANCH  12  13
ENDBRANCH  11  12
ENDBRANCH   8  11
ENDBRANCH   4   5
ENDBRANCH   2   4
TORSDOF 5
ENDMDL
MODEL       29
REMARK 921   NORMALIZED FREE ENERGY PREDICTED BY IDOCK:   -6.37 KCAL/MOL
REMARK 922        TOTAL FREE ENERGY PREDICTED BY IDOCK:   -8.78 KCAL/MOL
REMARK 923 INTER-LIGAND FREE ENERGY PREDICTED BY IDOCK:   -8.37 KCAL/MOL
REMARK 924 INTRA-LIGAND FREE ENERGY PREDICTED BY IDOCK:   -0.42 KCAL/MOL
REMARK 927      BINDING AFFINITY PREDICTED BY RF-SCORE:    0.00 PKD
ROOT
HETATM    1  O   UNL     1      -9.890   3.157  66.136  1.00  0.00    -0.401 OA 
HETATM    2  C   UNL     1      -9.300   3.331  67.422  1.00  0.00    -0.201 C  
HETATM    3  H   UNL     1     -10.107   2.239  66.018  1.00  0.00     0.000 HD 
ENDROOT
BRANCH   2   4
HETATM    4  C   UNL     1      -8.951   4.809  67.612  1.00  0.00    -0.110 C  
BRANCH   4   5
HETATM    5  N   UNL     1      -9.570   5.739  66.645  1.00  0.00    -0.147 NA 
HETATM    6  C   UNL     1     -10.805   6.306  67.238  1.00  0.00    -0.375 C  
HETATM    7  C   UNL     1     -10.534   7.336  68.362  1.00  0.00    -0.195 C  
HETATM    8  N   UNL     1      -9.660   8.460  67.948  1.00  0.00    -0.153 NA 
HETATM    9  C   UNL     1      -8.424   7.897  67.372  1.00  0.00    -0.122 C  
HETATM   10  C   UNL     1      -8.676   6.856  66.257  1.00  0.00    -0.142 C  
BRANCH   8  11
HETATM   11  C   UNL     1     -10.314   9.385  66.999  1.00  0.00    -0.252 C  
BRANCH  11  12
HETATM   12  C   UNL     1     -11.120  10.428  67.779  1.00  0.00    -0.365 C  
BRANCH  12  13
HETATM   13  C   UNL     1     -10.800  11.871  67.566  1.00  0.00    -0.283 C  
HETATM   14  C   UNL     1     -11.041  12.941  68.376  1.00  0.00    -0.293 C  
HETATM   15  C   UNL     1     -10.602  14.295  67.820  1.00  0.00    -0.253 A  
HETATM   16  C   UNL     1      -9.776  14.428  66.676  1.00  0.00    -0.289 A  
HETATM   17  C   UNL     1      -9.413  15.669  66.140  1.00  0.00    -0.376 A  
HETATM   18  C   UNL     1      -9.832  16.832  66.754  1.00  0.00    -0.282 A  
HETATM   19  C   UNL     1     -10.616  16.742  67.897  1.00  0.00    -0.350 A  
HETATM   20  C   UNL     1     -11.008  15.493  68.429  1.00  0.00    -0.297 A  
HETATM   21  S   UNL     1     -12.031  15.618  69.867  1.00  0.00    -0.332 SA 
HETATM   22  C   UNL     1     -12.251  13.943  70.398  1.00  0.00    -0.368 A  
HETATM   23  C   UNL     1     -11.780  12.805  69.717  1.00  0.00    -0.352 A  
HETATM   24  C   UNL     1     -12.067  11.574  70.359  1.00  0.00    -0.471 A  
HETATM   25  C   UNL     1     -12.834  11.465  71.526  1.00  0.00    -0.403 A  
HETATM   26  C   UNL     1     -13.296  12.592  72.159  1.00  0.00    -0.570 A  
HETATM   27 CL   UNL     1     -13.218   9.906  72.154  1.00  0.00    -0.536 Cl 
HETATM   28  C   UNL     1     -12.988  13.827  71.606  1.00  0.00    -0.448 A  
ENDBRANCH  12  13
ENDBRANCH  11  12
ENDBRANCH   8  11
ENDBRANCH   4   5
ENDBRANCH   2   4
TORSDOF 5
ENDMDL
MODEL       30
REMARK 921   NORMALIZED FREE ENERGY PREDICTED BY IDOCK:   -6.36 KCAL/MOL
REMARK 922        TOTAL FREE ENERGY PREDICTED BY IDOCK:   -8.77 KCAL/MOL
REMARK 923 INTER-LIGAND FREE ENERGY PREDICTED BY IDOCK:   -8.38 KCAL/MOL
REMARK 924 INTRA-LIGAND FREE ENERGY PREDICTED BY IDOCK:   -0.39 KCAL/MOL
REMARK 927      BINDING AFFINITY PREDICTED BY RF-SCORE:    0.00 PKD
ROOT
HETATM    1  O   UNL     1      -8.142   3.538  66.499  1.00  0.00    -0.091 OA 
HETATM    2  C   UNL     1      -9.449   3.898  66.940  1.00  0.00    -0.202 C  
HETATM    3  H   UNL     1      -8.217   2.977  65.736  1.00  0.00     0.000 HD 
ENDROOT
BRANCH   2   4
HETATM    4  C   UNL     1      -9.329   4.802  68.168  1.00  0.00    -0.134 C  
BRANCH   4   5
HETATM    5  N   UNL     1     -10.573   5.482  68.583  1.00  0.00    -0.179 NA 
HETATM    6  C   UNL     1     -10.590   5.606  70.060  1.00  0.00    -0.318 C  
HETATM    7  C   UNL     1      -9.593   6.659  70.604  1.00  0.00    -0.169 C  
HETATM    8  N   UNL     1      -9.775   8.012  70.023  1.00  0.00    -0.172 NA 
HETATM    9  C   UNL     1      -9.743   7.892  68.553  1.00  0.00    -0.161 C  
HETATM   10  C   UNL     1     -10.722   6.834  67.994  1.00  0.00    -0.241 C  
BRANCH   8  11
HETATM   11  C   UNL     1     -11.016   8.676  70.474  1.00  0.00    -0.238 C  
BRANCH  11  12
HETATM   12  C   UNL     1     -11.277   9.910  69.605  1.00  0.00    -0.251 C  
BRANCH  12  13
HETATM   13  C   UNL     1     -11.764  11.153  70.274  1.00  0.00    -0.431 C  
HETATM   14  C   UNL     1     -11.898  12.413  69.769  1.00  0.00    -0.387 C  
HETATM   15  C   UNL     1     -12.402  13.464  70.759  1.00  0.00    -0.433 A  
HETATM   16  C   UNL     1     -12.940  13.133  72.027  1.00  0.00    -0.401 A  
HETATM   17  C   UNL     1     -13.358  14.100  72.950  1.00  0.00    -0.532 A  
HETATM   18  C   UNL     1     -13.289  15.438  72.623  1.00  0.00    -0.602 A  
HETATM   19  C   UNL     1     -12.798  15.800  71.376  1.00  0.00    -0.504 A  
HETATM   20  C   UNL     1     -12.349  14.832  70.448  1.00  0.00    -0.344 A  
HETATM   21  S   UNL     1     -11.733  15.520  68.939  1.00  0.00    -0.351 SA 
HETATM   22  C   UNL     1     -11.383  14.112  67.924  1.00  0.00    -0.294 A  
HETATM   23  C   UNL     1     -11.489  12.769  68.331  1.00  0.00    -0.349 A  
HETATM   24  C   UNL     1     -11.170  11.823  67.325  1.00  0.00    -0.364 A  
HETATM   25  C   UNL     1     -10.698  12.167  66.053  1.00  0.00    -0.273 A  
HETATM   26  C   UNL     1     -10.586  13.487  65.690  1.00  0.00    -0.284 A  
HETATM   27 CL   UNL     1     -10.230  10.928  64.949  1.00  0.00    -0.362 Cl 
HETATM   28  C   UNL     1     -10.946  14.454  66.616  1.00  0.00    -0.318 A  
ENDBRANCH  12  13
ENDBRANCH  11  12
ENDBRANCH   8  11
ENDBRANCH   4   5
ENDBRANCH   2   4
TORSDOF 5
ENDMDL
MODEL       31
REMARK 921   NORMALIZED FREE ENERGY PREDICTED BY IDOCK:   -6.29 KCAL/MOL
REMARK 922        TOTAL FREE ENERGY PREDICTED BY IDOCK:   -8.68 KCAL/MOL
REMARK 923 INTER-LIGAND FREE ENERGY PREDICTED BY IDOCK:   -9.01 KCAL/MOL
REMARK 924 INTRA-LIGAND FREE ENERGY PREDICTED BY IDOCK:    0.33 KCAL/MOL
REMARK 927      BINDING AFFINITY PREDICTED BY RF-SCORE:    0.00 PKD
ROOT
HETATM    1  O   UNL     1     -11.431  11.096  62.970  1.00  0.00    -0.812 OA 
HETATM    2  C   UNL     1     -12.590  11.881  63.238  1.00  0.00    -0.344 C  
HETATM    3  H   UNL     1     -11.670  10.177  62.986  1.00  0.00     0.000 HD 
ENDROOT
BRANCH   2   4
HETATM    4  C   UNL     1     -12.205  13.362  63.213  1.00  0.00    -0.243 C  
BRANCH   4   5
HETATM    5  N   UNL     1     -12.607  14.145  64.399  1.00  0.00    -0.678 NA 
HETATM    6  C   UNL     1     -12.409  13.320  65.615  1.00  0.00    -0.465 C  
HETATM    7  C   UNL     1     -10.920  13.128  65.996  1.00  0.00    -0.279 C  
HETATM    8  N   UNL     1     -10.177  14.399  66.172  1.00  0.00    -0.295 NA 
HETATM    9  C   UNL     1     -10.360  15.214  64.955  1.00  0.00    -0.344 C  
HETATM   10  C   UNL     1     -11.841  15.405  64.553  1.00  0.00    -0.256 C  
BRANCH   8  11
HETATM   11  C   UNL     1     -10.584  15.149  67.379  1.00  0.00    -0.271 C  
BRANCH  11  12
HETATM   12  C   UNL     1     -10.150  14.376  68.628  1.00  0.00    -0.242 C  
BRANCH  12  13
HETATM   13  C   UNL     1     -10.046  12.889  68.537  1.00  0.00    -0.193 C  
HETATM   14  C   UNL     1     -10.764  11.929  69.186  1.00  0.00    -0.143 C  
HETATM   15  C   UNL     1     -10.362  10.487  68.873  1.00  0.00    -0.226 A  
HETATM   16  C   UNL     1      -9.496  10.143  67.807  1.00  0.00    -0.160 A  
HETATM   17  C   UNL     1      -9.092   8.827  67.549  1.00  0.00    -0.146 A  
HETATM   18  C   UNL     1      -9.573   7.796  68.330  1.00  0.00    -0.157 A  
HETATM   19  C   UNL     1     -10.450   8.091  69.365  1.00  0.00    -0.223 A  
HETATM   20  C   UNL     1     -10.842   9.419  69.647  1.00  0.00    -0.228 A  
HETATM   21  S   UNL     1     -11.938   9.563  71.029  1.00  0.00    -0.336 SA 
HETATM   22  C   UNL     1     -12.375  11.279  71.067  1.00  0.00    -0.366 A  
HETATM   23  C   UNL     1     -11.845  12.272  70.224  1.00  0.00    -0.324 A  
HETATM   24  C   UNL     1     -12.371  13.571  70.441  1.00  0.00    -0.397 A  
HETATM   25  C   UNL     1     -13.277  13.883  71.462  1.00  0.00    -0.352 A  
HETATM   26  C   UNL     1     -13.763  12.895  72.283  1.00  0.00    -0.553 A  
HETATM   27 CL   UNL     1     -13.761  15.520  71.705  1.00  0.00    -0.577 Cl 
HETATM   28  C   UNL     1     -13.328  11.595  72.072  1.00  0.00    -0.405 A  
ENDBRANCH  12  13
ENDBRANCH  11  12
ENDBRANCH   8  11
ENDBRANCH   4   5
ENDBRANCH   2   4
TORSDOF 5
ENDMDL
MODEL       32
REMARK 921   NORMALIZED FREE ENERGY PREDICTED BY IDOCK:   -6.25 KCAL/MOL
REMARK 922        TOTAL FREE ENERGY PREDICTED BY IDOCK:   -8.63 KCAL/MOL
REMARK 923 INTER-LIGAND FREE ENERGY PREDICTED BY IDOCK:   -8.05 KCAL/MOL
REMARK 924 INTRA-LIGAND FREE ENERGY PREDICTED BY IDOCK:   -0.58 KCAL/MOL
REMARK 927      BINDING AFFINITY PREDICTED BY RF-SCORE:    0.00 PKD
ROOT
HETATM    1  O   UNL     1     -11.041   5.713  73.769  1.00  0.00    -0.421 OA 
HETATM    2  C   UNL     1     -10.246   6.861  73.480  1.00  0.00    -0.315 C  
HETATM    3  H   UNL     1     -11.506   5.857  74.585  1.00  0.00     0.000 HD 
ENDROOT
BRANCH   2   4
HETATM    4  C   UNL     1      -9.497   6.629  72.165  1.00  0.00    -0.144 C  
BRANCH   4   5
HETATM    5  N   UNL     1      -9.021   7.847  71.481  1.00  0.00    -0.132 NA 
HETATM    6  C   UNL     1      -8.490   7.479  70.146  1.00  0.00    -0.136 C  
HETATM    7  C   UNL     1      -9.592   7.093  69.128  1.00  0.00    -0.154 C  
HETATM    8  N   UNL     1     -10.629   8.137  68.943  1.00  0.00    -0.184 NA 
HETATM    9  C   UNL     1     -11.168   8.494  70.269  1.00  0.00    -0.179 C  
HETATM   10  C   UNL     1     -10.080   8.868  71.302  1.00  0.00    -0.295 C  
BRANCH   8  11
HETATM   11  C   UNL     1     -10.128   9.334  68.235  1.00  0.00    -0.185 C  
BRANCH  11  12
HETATM   12  C   UNL     1     -11.268  10.345  68.077  1.00  0.00    -0.340 C  
BRANCH  12  13
HETATM   13  C   UNL     1     -10.914  11.766  67.781  1.00  0.00    -0.277 C  
HETATM   14  C   UNL     1     -11.145  12.888  68.521  1.00  0.00    -0.299 C  
HETATM   15  C   UNL     1     -10.670  14.197  67.889  1.00  0.00    -0.245 A  
HETATM   16  C   UNL     1      -9.827  14.242  66.752  1.00  0.00    -0.274 A  
HETATM   17  C   UNL     1      -9.430  15.441  66.146  1.00  0.00    -0.371 A  
HETATM   18  C   UNL     1      -9.834  16.647  66.681  1.00  0.00    -0.285 A  
HETATM   19  C   UNL     1     -10.635  16.644  67.815  1.00  0.00    -0.342 A  
HETATM   20  C   UNL     1     -11.060  15.438  68.417  1.00  0.00    -0.301 A  
HETATM   21  S   UNL     1     -12.100  15.671  69.829  1.00  0.00    -0.256 SA 
HETATM   22  C   UNL     1     -12.362  14.037  70.459  1.00  0.00    -0.367 A  
HETATM   23  C   UNL     1     -11.905  12.850  69.856  1.00  0.00    -0.373 A  
HETATM   24  C   UNL     1     -12.227  11.667  70.568  1.00  0.00    -0.451 A  
HETATM   25  C   UNL     1     -13.011  11.645  71.727  1.00  0.00    -0.377 A  
HETATM   26  C   UNL     1     -13.460  12.818  72.283  1.00  0.00    -0.591 A  
HETATM   27 CL   UNL     1     -13.437  10.136  72.444  1.00  0.00    -0.323 Cl 
HETATM   28  C   UNL     1     -13.118  14.010  71.661  1.00  0.00    -0.435 A  
ENDBRANCH  12  13
ENDBRANCH  11  12
ENDBRANCH   8  11
ENDBRANCH   4   5
ENDBRANCH   2   4
TORSDOF 5
ENDMDL
MODEL       33
REMARK 921   NORMALIZED FREE ENERGY PREDICTED BY IDOCK:   -6.23 KCAL/MOL
REMARK 922        TOTAL FREE ENERGY PREDICTED BY IDOCK:   -8.60 KCAL/MOL
REMARK 923 INTER-LIGAND FREE ENERGY PREDICTED BY IDOCK:   -8.19 KCAL/MOL
REMARK 924 INTRA-LIGAND FREE ENERGY PREDICTED BY IDOCK:   -0.41 KCAL/MOL
REMARK 927      BINDING AFFINITY PREDICTED BY RF-SCORE:    0.00 PKD
ROOT
HETATM    1  O   UNL     1     -10.283  18.561  68.924  1.00  0.00    -0.428 OA 
HETATM    2  C   UNL     1     -10.638  18.600  67.544  1.00  0.00    -0.423 C  
HETATM    3  H   UNL     1     -10.540  19.380  69.331  1.00  0.00     0.000 HD 
ENDROOT
BRANCH   2   4
HETATM    4  C   UNL     1     -10.224  17.281  66.887  1.00  0.00    -0.322 C  
BRANCH   4   5
HETATM    5  N   UNL     1     -10.993  16.092  67.309  1.00  0.00    -0.261 NA 
HETATM    6  C   UNL     1     -11.283  15.254  66.120  1.00  0.00    -0.225 C  
HETATM    7  C   UNL     1     -10.041  14.508  65.573  1.00  0.00    -0.366 C  
HETATM    8  N   UNL     1      -9.357  13.662  66.581  1.00  0.00    -0.267 NA 
HETATM    9  C   UNL     1      -9.055  14.498  67.758  1.00  0.00    -0.190 C  
HETATM   10  C   UNL     1     -10.282  15.262  68.309  1.00  0.00    -0.226 C  
BRANCH   8  11
HETATM   11  C   UNL     1     -10.141  12.468  66.965  1.00  0.00    -0.216 C  
BRANCH  11  12
HETATM   12  C   UNL     1      -9.635  11.941  68.311  1.00  0.00    -0.201 C  
BRANCH  12  13
HETATM   13  C   UNL     1      -9.948  10.527  68.677  1.00  0.00    -0.188 C  
HETATM   14  C   UNL     1     -10.884  10.043  69.543  1.00  0.00    -0.283 C  
HETATM   15  C   UNL     1     -10.904   8.522  69.701  1.00  0.00    -0.157 A  
HETATM   16  C   UNL     1     -10.199   7.648  68.837  1.00  0.00    -0.217 A  
HETATM   17  C   UNL     1     -10.183   6.259  69.010  1.00  0.00    -0.224 A  
HETATM   18  C   UNL     1     -10.905   5.686  70.036  1.00  0.00    -0.366 A  
HETATM   19  C   UNL     1     -11.635   6.507  70.884  1.00  0.00    -0.417 A  
HETATM   20  C   UNL     1     -11.637   7.912  70.732  1.00  0.00    -0.247 A  
HETATM   21  S   UNL     1     -12.608   8.762  71.943  1.00  0.00    -0.398 SA 
HETATM   22  C   UNL     1     -12.552  10.459  71.440  1.00  0.00    -0.434 A  
HETATM   23  C   UNL     1     -11.795  10.966  70.369  1.00  0.00    -0.449 A  
HETATM   24  C   UNL     1     -11.936  12.360  70.155  1.00  0.00    -0.376 A  
HETATM   25  C   UNL     1     -12.688  13.202  70.983  1.00  0.00    -0.277 A  
HETATM   26  C   UNL     1     -13.403  12.682  72.034  1.00  0.00    -0.555 A  
HETATM   27 CL   UNL     1     -12.694  14.902  70.696  1.00  0.00    -0.409 Cl 
HETATM   28  C   UNL     1     -13.350  11.313  72.248  1.00  0.00    -0.068 A  
ENDBRANCH  12  13
ENDBRANCH  11  12
ENDBRANCH   8  11
ENDBRANCH   4   5
ENDBRANCH   2   4
TORSDOF 5
ENDMDL
MODEL       34
REMARK 921   NORMALIZED FREE ENERGY PREDICTED BY IDOCK:   -6.22 KCAL/MOL
REMARK 922        TOTAL FREE ENERGY PREDICTED BY IDOCK:   -8.58 KCAL/MOL
REMARK 923 INTER-LIGAND FREE ENERGY PREDICTED BY IDOCK:   -8.14 KCAL/MOL
REMARK 924 INTRA-LIGAND FREE ENERGY PREDICTED BY IDOCK:   -0.44 KCAL/MOL
REMARK 927      BINDING AFFINITY PREDICTED BY RF-SCORE:    0.00 PKD
ROOT
HETATM    1  O   UNL     1     -10.361  19.845  69.122  1.00  0.00    -0.631 OA 
HETATM    2  C   UNL     1     -10.021  19.793  67.739  1.00  0.00    -0.409 C  
HETATM    3  H   UNL     1     -10.037  20.660  69.489  1.00  0.00     0.000 HD 
ENDROOT
BRANCH   2   4
HETATM    4  C   UNL     1     -10.544  18.481  67.148  1.00  0.00    -0.398 C  
BRANCH   4   5
HETATM    5  N   UNL     1      -9.707  17.291  67.401  1.00  0.00    -0.253 NA 
HETATM    6  C   UNL     1     -10.338  16.470  68.462  1.00  0.00    -0.289 C  
HETATM    7  C   UNL     1     -11.611  15.724  67.991  1.00  0.00    -0.210 C  
HETATM    8  N   UNL     1     -11.397  14.863  66.803  1.00  0.00    -0.345 NA 
HETATM    9  C   UNL     1     -10.783  15.683  65.741  1.00  0.00    -0.341 C  
HETATM   10  C   UNL     1      -9.518  16.445  66.198  1.00  0.00    -0.329 C  
BRANCH   8  11
HETATM   11  C   UNL     1     -10.576  13.668  67.092  1.00  0.00    -0.272 C  
BRANCH  11  12
HETATM   12  C   UNL     1     -11.448  12.414  66.987  1.00  0.00    -0.423 C  
BRANCH  12  13
HETATM   13  C   UNL     1     -11.628  11.575  68.209  1.00  0.00    -0.378 C  
HETATM   14  C   UNL     1     -11.111  10.347  68.502  1.00  0.00    -0.318 C  
HETATM   15  C   UNL     1     -11.538   9.762  69.849  1.00  0.00    -0.132 A  
HETATM   16  C   UNL     1     -12.204  10.521  70.843  1.00  0.00    -0.490 A  
HETATM   17  C   UNL     1     -12.634   9.972  72.057  1.00  0.00    -0.379 A  
HETATM   18  C   UNL     1     -12.380   8.646  72.339  1.00  0.00    -0.426 A  
HETATM   19  C   UNL     1     -11.701   7.878  71.403  1.00  0.00    -0.311 A  
HETATM   20  C   UNL     1     -11.286   8.418  70.165  1.00  0.00    -0.136 A  
HETATM   21  S   UNL     1     -10.469   7.252  69.114  1.00  0.00    -0.211 SA 
HETATM   22  C   UNL     1      -9.938   8.209  67.722  1.00  0.00    -0.181 A  
HETATM   23  C   UNL     1     -10.231   9.569  67.511  1.00  0.00    -0.283 A  
HETATM   24  C   UNL     1      -9.673  10.114  66.328  1.00  0.00    -0.274 A  
HETATM   25  C   UNL     1      -8.963   9.363  65.383  1.00  0.00    -0.206 A  
HETATM   26  C   UNL     1      -8.708   8.032  65.608  1.00  0.00    -0.156 A  
HETATM   27 CL   UNL     1      -8.430  10.107  63.923  1.00  0.00    -0.171 Cl 
HETATM   28  C   UNL     1      -9.178   7.464  66.783  1.00  0.00    -0.190 A  
ENDBRANCH  12  13
ENDBRANCH  11  12
ENDBRANCH   8  11
ENDBRANCH   4   5
ENDBRANCH   2   4
TORSDOF 5
ENDMDL
MODEL       35
REMARK 921   NORMALIZED FREE ENERGY PREDICTED BY IDOCK:   -6.20 KCAL/MOL
REMARK 922        TOTAL FREE ENERGY PREDICTED BY IDOCK:   -8.56 KCAL/MOL
REMARK 923 INTER-LIGAND FREE ENERGY PREDICTED BY IDOCK:   -7.89 KCAL/MOL
REMARK 924 INTRA-LIGAND FREE ENERGY PREDICTED BY IDOCK:   -0.67 KCAL/MOL
REMARK 927      BINDING AFFINITY PREDICTED BY RF-SCORE:    0.00 PKD
ROOT
HETATM    1  O   UNL     1      -5.958  18.070  69.792  1.00  0.00    -0.233 OA 
HETATM    2  C   UNL     1      -6.953  18.423  68.835  1.00  0.00    -0.282 C  
HETATM    3  H   UNL     1      -5.486  18.853  70.051  1.00  0.00     0.000 HD 
ENDROOT
BRANCH   2   4
HETATM    4  C   UNL     1      -7.712  17.162  68.418  1.00  0.00    -0.237 C  
BRANCH   4   5
HETATM    5  N   UNL     1      -9.163  17.171  68.696  1.00  0.00    -0.263 NA 
HETATM    6  C   UNL     1      -9.902  17.275  67.415  1.00  0.00    -0.272 C  
HETATM    7  C   UNL     1      -9.867  15.975  66.574  1.00  0.00    -0.267 C  
HETATM    8  N   UNL     1     -10.359  14.778  67.297  1.00  0.00    -0.246 NA 
HETATM    9  C   UNL     1      -9.613  14.665  68.565  1.00  0.00    -0.221 C  
HETATM   10  C   UNL     1      -9.627  15.959  69.412  1.00  0.00    -0.265 C  
BRANCH   8  11
HETATM   11  C   UNL     1     -11.817  14.805  67.541  1.00  0.00    -0.301 C  
BRANCH  11  12
HETATM   12  C   UNL     1     -12.410  13.429  67.226  1.00  0.00    -0.157 C  
BRANCH  12  13
HETATM   13  C   UNL     1     -11.604  12.486  66.394  1.00  0.00    -0.449 C  
HETATM   14  C   UNL     1     -11.060  11.281  66.731  1.00  0.00    -0.314 C  
HETATM   15  C   UNL     1     -10.257  10.594  65.626  1.00  0.00    -0.319 A  
HETATM   16  C   UNL     1     -10.278  11.025  64.277  1.00  0.00    -0.414 A  
HETATM   17  C   UNL     1      -9.506  10.424  63.274  1.00  0.00    -0.361 A  
HETATM   18  C   UNL     1      -8.711   9.338  63.579  1.00  0.00    -0.188 A  
HETATM   19  C   UNL     1      -8.690   8.866  64.884  1.00  0.00    -0.184 A  
HETATM   20  C   UNL     1      -9.445   9.484  65.906  1.00  0.00    -0.244 A  
HETATM   21  S   UNL     1      -9.241   8.737  67.497  1.00  0.00    -0.137 SA 
HETATM   22  C   UNL     1     -10.386   9.598  68.538  1.00  0.00    -0.205 A  
HETATM   23  C   UNL     1     -11.174  10.696  68.147  1.00  0.00    -0.366 A  
HETATM   24  C   UNL     1     -12.029  11.197  69.161  1.00  0.00    -0.413 A  
HETATM   25  C   UNL     1     -12.041  10.718  70.477  1.00  0.00    -0.366 A  
HETATM   26  C   UNL     1     -11.247   9.656  70.835  1.00  0.00    -0.422 A  
HETATM   27 CL   UNL     1     -13.040  11.482  71.656  1.00  0.00    -0.542 Cl 
HETATM   28  C   UNL     1     -10.438   9.087  69.863  1.00  0.00    -0.226 A  
ENDBRANCH  12  13
ENDBRANCH  11  12
ENDBRANCH   8  11
ENDBRANCH   4   5
ENDBRANCH   2   4
TORSDOF 5
ENDMDL
MODEL       36
REMARK 921   NORMALIZED FREE ENERGY PREDICTED BY IDOCK:   -6.11 KCAL/MOL
REMARK 922        TOTAL FREE ENERGY PREDICTED BY IDOCK:   -8.45 KCAL/MOL
REMARK 923 INTER-LIGAND FREE ENERGY PREDICTED BY IDOCK:   -7.95 KCAL/MOL
REMARK 924 INTRA-LIGAND FREE ENERGY PREDICTED BY IDOCK:   -0.51 KCAL/MOL
REMARK 927      BINDING AFFINITY PREDICTED BY RF-SCORE:    0.00 PKD
ROOT
HETATM    1  O   UNL     1      -5.430  18.975  63.520  1.00  0.00    -0.285 OA 
HETATM    2  C   UNL     1      -5.551  20.280  64.082  1.00  0.00    -0.220 C  
HETATM    3  H   UNL     1      -5.440  19.046  62.572  1.00  0.00     0.000 HD 
ENDROOT
BRANCH   2   4
HETATM    4  C   UNL     1      -5.535  20.166  65.608  1.00  0.00    -0.165 C  
BRANCH   4   5
HETATM    5  N   UNL     1      -6.746  20.659  66.296  1.00  0.00    -0.242 NA 
HETATM    6  C   UNL     1      -7.939  20.003  65.709  1.00  0.00    -0.158 C  
HETATM    7  C   UNL     1      -8.079  18.511  66.099  1.00  0.00    -0.176 C  
HETATM    8  N   UNL     1      -8.092  18.272  67.563  1.00  0.00    -0.238 NA 
HETATM    9  C   UNL     1      -6.897  18.912  68.146  1.00  0.00    -0.241 C  
HETATM   10  C   UNL     1      -6.734  20.399  67.755  1.00  0.00    -0.293 C  
BRANCH   8  11
HETATM   11  C   UNL     1      -9.325  18.755  68.219  1.00  0.00    -0.337 C  
BRANCH  11  12
HETATM   12  C   UNL     1     -10.403  17.671  68.136  1.00  0.00    -0.386 C  
BRANCH  12  13
HETATM   13  C   UNL     1     -10.877  17.048  69.409  1.00  0.00    -0.092 C  
HETATM   14  C   UNL     1     -11.217  15.753  69.665  1.00  0.00    -0.319 C  
HETATM   15  C   UNL     1     -11.696  15.472  71.089  1.00  0.00    -0.439 A  
HETATM   16  C   UNL     1     -11.560  16.405  72.146  1.00  0.00    -0.336 A  
HETATM   17  C   UNL     1     -12.040  16.164  73.440  1.00  0.00    -0.586 A  
HETATM   18  C   UNL     1     -12.643  14.959  73.735  1.00  0.00    -0.584 A  
HETATM   19  C   UNL     1     -12.766  14.006  72.733  1.00  0.00    -0.307 A  
HETATM   20  C   UNL     1     -12.307  14.251  71.419  1.00  0.00    -0.353 A  
HETATM   21  S   UNL     1     -12.596  12.913  70.299  1.00  0.00     0.076 SA 
HETATM   22  C   UNL     1     -11.810  13.419  68.795  1.00  0.00    -0.351 A  
HETATM   23  C   UNL     1     -11.203  14.669  68.575  1.00  0.00    -0.288 A  
HETATM   24  C   UNL     1     -10.624  14.824  67.290  1.00  0.00    -0.273 A  
HETATM   25  C   UNL     1     -10.714  13.865  66.274  1.00  0.00    -0.285 A  
HETATM   26  C   UNL     1     -11.329  12.660  66.512  1.00  0.00    -0.377 A  
HETATM   27 CL   UNL     1     -10.072  14.210  64.712  1.00  0.00    -0.331 Cl 
HETATM   28  C   UNL     1     -11.857  12.432  67.774  1.00  0.00    -0.362 A  
ENDBRANCH  12  13
ENDBRANCH  11  12
ENDBRANCH   8  11
ENDBRANCH   4   5
ENDBRANCH   2   4
TORSDOF 5
ENDMDL
MODEL       37
REMARK 921   NORMALIZED FREE ENERGY PREDICTED BY IDOCK:   -6.07 KCAL/MOL
REMARK 922        TOTAL FREE ENERGY PREDICTED BY IDOCK:   -8.39 KCAL/MOL
REMARK 923 INTER-LIGAND FREE ENERGY PREDICTED BY IDOCK:   -7.92 KCAL/MOL
REMARK 924 INTRA-LIGAND FREE ENERGY PREDICTED BY IDOCK:   -0.48 KCAL/MOL
REMARK 927      BINDING AFFINITY PREDICTED BY RF-SCORE:    0.00 PKD
ROOT
HETATM    1  O   UNL     1     -11.666  11.506  62.881  1.00  0.00    -0.834 OA 
HETATM    2  C   UNL     1     -12.722  12.163  63.579  1.00  0.00    -0.431 C  
HETATM    3  H   UNL     1     -12.006  10.714  62.481  1.00  0.00     0.000 HD 
ENDROOT
BRANCH   2   4
HETATM    4  C   UNL     1     -12.173  13.437  64.224  1.00  0.00    -0.392 C  
BRANCH   4   5
HETATM    5  N   UNL     1     -12.166  13.451  65.701  1.00  0.00    -0.435 NA 
HETATM    6  C   UNL     1     -11.672  12.143  66.196  1.00  0.00    -0.315 C  
HETATM    7  C   UNL     1     -10.151  11.938  65.988  1.00  0.00    -0.231 C  
HETATM    8  N   UNL     1      -9.315  13.007  66.587  1.00  0.00    -0.250 NA 
HETATM    9  C   UNL     1      -9.795  14.308  66.083  1.00  0.00    -0.316 C  
HETATM   10  C   UNL     1     -11.315  14.523  66.270  1.00  0.00    -0.352 C  
BRANCH   8  11
HETATM   11  C   UNL     1      -9.308  12.980  68.065  1.00  0.00    -0.213 C  
BRANCH  11  12
HETATM   12  C   UNL     1      -9.075  11.546  68.547  1.00  0.00    -0.157 C  
BRANCH  12  13
HETATM   13  C   UNL     1     -10.120  10.911  69.404  1.00  0.00    -0.116 C  
HETATM   14  C   UNL     1     -10.281   9.600  69.747  1.00  0.00    -0.262 C  
HETATM   15  C   UNL     1     -11.496   9.299  70.625  1.00  0.00    -0.327 A  
HETATM   16  C   UNL     1     -12.259  10.310  71.259  1.00  0.00    -0.496 A  
HETATM   17  C   UNL     1     -13.398  10.035  72.026  1.00  0.00    -0.513 A  
HETATM   18  C   UNL     1     -13.797   8.728  72.219  1.00  0.00    -0.505 A  
HETATM   19  C   UNL     1     -13.055   7.707  71.640  1.00  0.00    -0.392 A  
HETATM   20  C   UNL     1     -11.919   7.978  70.844  1.00  0.00    -0.189 A  
HETATM   21  S   UNL     1     -11.149   6.530  70.181  1.00  0.00    -0.383 SA 
HETATM   22  C   UNL     1      -9.700   7.137  69.363  1.00  0.00    -0.160 A  
HETATM   23  C   UNL     1      -9.356   8.493  69.217  1.00  0.00    -0.154 A  
HETATM   24  C   UNL     1      -8.133   8.721  68.538  1.00  0.00    -0.116 A  
HETATM   25  C   UNL     1      -7.356   7.703  67.970  1.00  0.00    -0.099 A  
HETATM   26  C   UNL     1      -7.727   6.388  68.112  1.00  0.00    -0.104 A  
HETATM   27 CL   UNL     1      -5.945   8.107  67.066  1.00  0.00    -0.051 Cl 
HETATM   28  C   UNL     1      -8.884   6.107  68.824  1.00  0.00    -0.121 A  
ENDBRANCH  12  13
ENDBRANCH  11  12
ENDBRANCH   8  11
ENDBRANCH   4   5
ENDBRANCH   2   4
TORSDOF 5
ENDMDL
MODEL       38
REMARK 921   NORMALIZED FREE ENERGY PREDICTED BY IDOCK:   -6.06 KCAL/MOL
REMARK 922        TOTAL FREE ENERGY PREDICTED BY IDOCK:   -8.39 KCAL/MOL
REMARK 923 INTER-LIGAND FREE ENERGY PREDICTED BY IDOCK:   -7.63 KCAL/MOL
REMARK 924 INTRA-LIGAND FREE ENERGY PREDICTED BY IDOCK:   -0.76 KCAL/MOL
REMARK 927      BINDING AFFINITY PREDICTED BY RF-SCORE:    0.00 PKD
ROOT
HETATM    1  O   UNL     1      -6.700   8.972  72.663  1.00  0.00    -0.313 OA 
HETATM    2  C   UNL     1      -7.194   7.760  72.097  1.00  0.00    -0.075 C  
HETATM    3  H   UNL     1      -6.831   8.949  73.603  1.00  0.00     0.000 HD 
ENDROOT
BRANCH   2   4
HETATM    4  C   UNL     1      -6.983   7.797  70.582  1.00  0.00    -0.046 C  
BRANCH   4   5
HETATM    5  N   UNL     1      -8.150   7.403  69.766  1.00  0.00    -0.125 NA 
HETATM    6  C   UNL     1      -9.314   8.238  70.148  1.00  0.00    -0.159 C  
HETATM    7  C   UNL     1      -9.211   9.703  69.657  1.00  0.00    -0.211 C  
HETATM    8  N   UNL     1      -9.007   9.832  68.194  1.00  0.00    -0.119 NA 
HETATM    9  C   UNL     1      -7.840   9.013  67.815  1.00  0.00    -0.101 C  
HETATM   10  C   UNL     1      -7.920   7.550  68.310  1.00  0.00    -0.123 C  
BRANCH   8  11
HETATM   11  C   UNL     1     -10.199   9.453  67.406  1.00  0.00    -0.239 C  
BRANCH  11  12
HETATM   12  C   UNL     1     -11.281  10.524  67.572  1.00  0.00    -0.299 C  
BRANCH  12  13
HETATM   13  C   UNL     1     -10.890  11.954  67.392  1.00  0.00    -0.289 C  
HETATM   14  C   UNL     1     -11.069  13.014  68.233  1.00  0.00    -0.293 C  
HETATM   15  C   UNL     1     -10.568  14.359  67.706  1.00  0.00    -0.246 A  
HETATM   16  C   UNL     1      -9.749  14.479  66.557  1.00  0.00    -0.301 A  
HETATM   17  C   UNL     1      -9.329  15.715  66.049  1.00  0.00    -0.384 A  
HETATM   18  C   UNL     1      -9.683  16.880  66.698  1.00  0.00    -0.283 A  
HETATM   19  C   UNL     1     -10.458  16.800  67.847  1.00  0.00    -0.335 A  
HETATM   20  C   UNL     1     -10.908  15.559  68.351  1.00  0.00    -0.273 A  
HETATM   21  S   UNL     1     -11.908  15.697  69.803  1.00  0.00    -0.352 SA 
HETATM   22  C   UNL     1     -12.206  14.021  70.294  1.00  0.00    -0.361 A  
HETATM   23  C   UNL     1     -11.800  12.880  69.579  1.00  0.00    -0.383 A  
HETATM   24  C   UNL     1     -12.142  11.648  70.191  1.00  0.00    -0.414 A  
HETATM   25  C   UNL     1     -12.901  11.546  71.364  1.00  0.00    -0.384 A  
HETATM   26  C   UNL     1     -13.300  12.679  72.031  1.00  0.00    -0.555 A  
HETATM   27 CL   UNL     1     -13.357   9.993  71.956  1.00  0.00    -0.535 Cl 
HETATM   28  C   UNL     1     -12.936  13.910  71.507  1.00  0.00    -0.436 A  
ENDBRANCH  12  13
ENDBRANCH  11  12
ENDBRANCH   8  11
ENDBRANCH   4   5
ENDBRANCH   2   4
TORSDOF 5
ENDMDL
MODEL       39
REMARK 921   NORMALIZED FREE ENERGY PREDICTED BY IDOCK:   -6.06 KCAL/MOL
REMARK 922        TOTAL FREE ENERGY PREDICTED BY IDOCK:   -8.38 KCAL/MOL
REMARK 923 INTER-LIGAND FREE ENERGY PREDICTED BY IDOCK:   -8.01 KCAL/MOL
REMARK 924 INTRA-LIGAND FREE ENERGY PREDICTED BY IDOCK:   -0.37 KCAL/MOL
REMARK 927      BINDING AFFINITY PREDICTED BY RF-SCORE:    0.00 PKD
ROOT
HETATM    1  O   UNL     1     -11.295  16.638  64.074  1.00  0.00    -1.486 OA 
HETATM    2  C   UNL     1     -10.672  16.588  65.355  1.00  0.00    -0.259 C  
HETATM    3  H   UNL     1     -11.057  17.453  63.647  1.00  0.00     0.000 HD 
ENDROOT
BRANCH   2   4
HETATM    4  C   UNL     1     -11.056  15.276  66.043  1.00  0.00    -0.278 C  
BRANCH   4   5
HETATM    5  N   UNL     1     -10.148  14.137  65.792  1.00  0.00    -0.323 NA 
HETATM    6  C   UNL     1      -9.730  13.554  67.090  1.00  0.00    -0.244 C  
HETATM    7  C   UNL     1     -10.854  12.763  67.803  1.00  0.00    -0.225 C  
HETATM    8  N   UNL     1     -11.443  11.681  66.977  1.00  0.00    -0.490 NA 
HETATM    9  C   UNL     1     -11.874  12.263  65.691  1.00  0.00    -0.360 C  
HETATM   10  C   UNL     1     -10.767  13.069  64.972  1.00  0.00    -0.315 C  
BRANCH   8  11
HETATM   11  C   UNL     1     -10.520  10.546  66.763  1.00  0.00    -0.242 C  
BRANCH  11  12
HETATM   12  C   UNL     1     -10.866   9.419  67.739  1.00  0.00    -0.223 C  
BRANCH  12  13
HETATM   13  C   UNL     1     -10.356   8.047  67.442  1.00  0.00    -0.354 C  
HETATM   14  C   UNL     1     -10.361   6.931  68.227  1.00  0.00    -0.220 C  
HETATM   15  C   UNL     1      -9.717   5.692  67.606  1.00  0.00    -0.135 A  
HETATM   16  C   UNL     1      -9.371   5.608  66.235  1.00  0.00    -0.169 A  
HETATM   17  C   UNL     1      -8.740   4.489  65.677  1.00  0.00    -0.124 A  
HETATM   18  C   UNL     1      -8.465   3.391  66.466  1.00  0.00    -0.109 A  
HETATM   19  C   UNL     1      -8.819   3.423  67.808  1.00  0.00    -0.153 A  
HETATM   20  C   UNL     1      -9.432   4.558  68.384  1.00  0.00    -0.151 A  
HETATM   21  S   UNL     1      -9.764   4.391  70.114  1.00  0.00    -0.220 SA 
HETATM   22  C   UNL     1     -10.646   5.867  70.538  1.00  0.00    -0.275 A  
HETATM   23  C   UNL     1     -10.897   6.943  69.668  1.00  0.00    -0.294 A  
HETATM   24  C   UNL     1     -11.644   8.003  70.241  1.00  0.00    -0.003 A  
HETATM   25  C   UNL     1     -12.033   8.042  71.586  1.00  0.00    -0.298 A  
HETATM   26  C   UNL     1     -11.758   6.985  72.418  1.00  0.00    -0.252 A  
HETATM   27 CL   UNL     1     -12.838   9.436  72.204  1.00  0.00    -0.475 Cl 
HETATM   28  C   UNL     1     -11.084   5.894  71.889  1.00  0.00    -0.325 A  
ENDBRANCH  12  13
ENDBRANCH  11  12
ENDBRANCH   8  11
ENDBRANCH   4   5
ENDBRANCH   2   4
TORSDOF 5
ENDMDL
MODEL       40
REMARK 921   NORMALIZED FREE ENERGY PREDICTED BY IDOCK:   -6.01 KCAL/MOL
REMARK 922        TOTAL FREE ENERGY PREDICTED BY IDOCK:   -8.31 KCAL/MOL
REMARK 923 INTER-LIGAND FREE ENERGY PREDICTED BY IDOCK:   -7.65 KCAL/MOL
REMARK 924 INTRA-LIGAND FREE ENERGY PREDICTED BY IDOCK:   -0.66 KCAL/MOL
REMARK 927      BINDING AFFINITY PREDICTED BY RF-SCORE:    0.00 PKD
ROOT
HETATM    1  O   UNL     1      -5.334   6.726  71.134  1.00  0.00    -0.025 OA 
HETATM    2  C   UNL     1      -5.375   8.015  71.741  1.00  0.00    -0.035 C  
HETATM    3  H   UNL     1      -4.501   6.316  71.335  1.00  0.00     0.000 HD 
ENDROOT
BRANCH   2   4
HETATM    4  C   UNL     1      -6.717   8.675  71.418  1.00  0.00    -0.076 C  
BRANCH   4   5
HETATM    5  N   UNL     1      -7.373   8.210  70.178  1.00  0.00    -0.059 NA 
HETATM    6  C   UNL     1      -8.802   7.930  70.460  1.00  0.00    -0.141 C  
HETATM    7  C   UNL     1      -9.651   9.208  70.671  1.00  0.00    -0.255 C  
HETATM    8  N   UNL     1      -9.581  10.168  69.543  1.00  0.00    -0.224 NA 
HETATM    9  C   UNL     1      -8.159  10.459  69.271  1.00  0.00    -0.157 C  
HETATM   10  C   UNL     1      -7.293   9.193  69.072  1.00  0.00    -0.073 C  
BRANCH   8  11
HETATM   11  C   UNL     1     -10.265   9.685  68.325  1.00  0.00    -0.186 C  
BRANCH  11  12
HETATM   12  C   UNL     1     -11.560  10.477  68.121  1.00  0.00    -0.145 C  
BRANCH  12  13
HETATM   13  C   UNL     1     -11.901  11.539  69.114  1.00  0.00    -0.406 C  
HETATM   14  C   UNL     1     -11.863  12.896  68.980  1.00  0.00    -0.352 C  
HETATM   15  C   UNL     1     -12.253  13.688  70.228  1.00  0.00    -0.423 A  
HETATM   16  C   UNL     1     -12.856  13.091  71.362  1.00  0.00    -0.385 A  
HETATM   17  C   UNL     1     -13.171  13.810  72.522  1.00  0.00    -0.599 A  
HETATM   18  C   UNL     1     -12.926  15.166  72.577  1.00  0.00    -0.470 A  
HETATM   19  C   UNL     1     -12.365  15.793  71.473  1.00  0.00    -0.514 A  
HETATM   20  C   UNL     1     -12.021  15.070  70.308  1.00  0.00    -0.315 A  
HETATM   21  S   UNL     1     -11.290  16.064  69.040  1.00  0.00    -0.355 SA 
HETATM   22  C   UNL     1     -11.097  14.958  67.670  1.00  0.00    -0.311 A  
HETATM   23  C   UNL     1     -11.381  13.580  67.691  1.00  0.00    -0.326 A  
HETATM   24  C   UNL     1     -11.161  12.915  66.458  1.00  0.00    -0.340 A  
HETATM   25  C   UNL     1     -10.621  13.535  65.325  1.00  0.00    -0.328 A  
HETATM   26  C   UNL     1     -10.335  14.878  65.339  1.00  0.00    -0.413 A  
HETATM   27 CL   UNL     1     -10.289  12.600  63.915  1.00  0.00    -0.434 Cl 
HETATM   28  C   UNL     1     -10.592  15.589  66.502  1.00  0.00    -0.307 A  
ENDBRANCH  12  13
ENDBRANCH  11  12
ENDBRANCH   8  11
ENDBRANCH   4   5
ENDBRANCH   2   4
TORSDOF 5
ENDMDL
MODEL       41
REMARK 921   NORMALIZED FREE ENERGY PREDICTED BY IDOCK:   -6.00 KCAL/MOL
REMARK 922        TOTAL FREE ENERGY PREDICTED BY IDOCK:   -8.30 KCAL/MOL
REMARK 923 INTER-LIGAND FREE ENERGY PREDICTED BY IDOCK:   -7.81 KCAL/MOL
REMARK 924 INTRA-LIGAND FREE ENERGY PREDICTED BY IDOCK:   -0.49 KCAL/MOL
REMARK 927      BINDING AFFINITY PREDICTED BY RF-SCORE:    0.00 PKD
ROOT
HETATM    1  O   UNL     1      -6.146   6.112  72.377  1.00  0.00    -0.037 OA 
HETATM    2  C   UNL     1      -7.044   5.088  72.798  1.00  0.00    -0.083 C  
HETATM    3  H   UNL     1      -5.328   5.712  72.107  1.00  0.00     0.000 HD 
ENDROOT
BRANCH   2   4
HETATM    4  C   UNL     1      -8.363   5.731  73.234  1.00  0.00    -0.116 C  
BRANCH   4   5
HETATM    5  N   UNL     1      -9.465   5.651  72.255  1.00  0.00    -0.145 NA 
HETATM    6  C   UNL     1     -10.736   6.023  72.921  1.00  0.00    -0.247 C  
HETATM    7  C   UNL     1     -10.851   7.536  73.231  1.00  0.00    -0.355 C  
HETATM    8  N   UNL     1     -10.679   8.406  72.043  1.00  0.00    -0.291 NA 
HETATM    9  C   UNL     1      -9.407   8.047  71.387  1.00  0.00    -0.144 C  
HETATM   10  C   UNL     1      -9.269   6.537  71.083  1.00  0.00    -0.156 C  
BRANCH   8  11
HETATM   11  C   UNL     1     -11.808   8.322  71.092  1.00  0.00    -0.275 C  
BRANCH  11  12
HETATM   12  C   UNL     1     -11.734   9.494  70.110  1.00  0.00    -0.096 C  
BRANCH  12  13
HETATM   13  C   UNL     1     -12.191  10.836  70.577  1.00  0.00    -0.457 C  
HETATM   14  C   UNL     1     -12.183  12.032  69.920  1.00  0.00    -0.249 C  
HETATM   15  C   UNL     1     -12.703  13.224  70.725  1.00  0.00    -0.284 A  
HETATM   16  C   UNL     1     -13.384  13.082  71.959  1.00  0.00    -0.588 A  
HETATM   17  C   UNL     1     -13.819  14.177  72.717  1.00  0.00    -0.356 A  
HETATM   18  C   UNL     1     -13.621  15.459  72.248  1.00  0.00    -0.606 A  
HETATM   19  C   UNL     1     -12.986  15.637  71.026  1.00  0.00    -0.518 A  
HETATM   20  C   UNL     1     -12.521  14.539  70.267  1.00  0.00    -0.348 A  
HETATM   21  S   UNL     1     -11.714  15.000  68.762  1.00  0.00    -0.319 SA 
HETATM   22  C   UNL     1     -11.370  13.460  67.957  1.00  0.00    -0.286 A  
HETATM   23  C   UNL     1     -11.612  12.186  68.501  1.00  0.00    -0.366 A  
HETATM   24  C   UNL     1     -11.267  11.107  67.650  1.00  0.00    -0.364 A  
HETATM   25  C   UNL     1     -10.650  11.265  66.403  1.00  0.00    -0.266 A  
HETATM   26  C   UNL     1     -10.408  12.522  65.905  1.00  0.00    -0.284 A  
HETATM   27 CL   UNL     1     -10.169   9.876  65.503  1.00  0.00    -0.290 Cl 
HETATM   28  C   UNL     1     -10.785  13.614  66.672  1.00  0.00    -0.280 A  
ENDBRANCH  12  13
ENDBRANCH  11  12
ENDBRANCH   8  11
ENDBRANCH   4   5
ENDBRANCH   2   4
TORSDOF 5
ENDMDL
MODEL       42
REMARK 921   NORMALIZED FREE ENERGY PREDICTED BY IDOCK:   -5.92 KCAL/MOL
REMARK 922        TOTAL FREE ENERGY PREDICTED BY IDOCK:   -8.21 KCAL/MOL
REMARK 923 INTER-LIGAND FREE ENERGY PREDICTED BY IDOCK:   -7.87 KCAL/MOL
REMARK 924 INTRA-LIGAND FREE ENERGY PREDICTED BY IDOCK:   -0.34 KCAL/MOL
REMARK 927      BINDING AFFINITY PREDICTED BY RF-SCORE:    0.00 PKD
ROOT
HETATM    1  O   UNL     1      -9.858   3.235  65.229  1.00  0.00    -0.349 OA 
HETATM    2  C   UNL     1      -9.261   2.857  66.467  1.00  0.00    -0.105 C  
HETATM    3  H   UNL     1      -9.725   2.539  64.596  1.00  0.00     0.000 HD 
ENDROOT
BRANCH   2   4
HETATM    4  C   UNL     1      -9.476   3.978  67.486  1.00  0.00    -0.188 C  
BRANCH   4   5
HETATM    5  N   UNL     1      -8.935   5.298  67.104  1.00  0.00    -0.112 NA 
HETATM    6  C   UNL     1     -10.035   6.139  66.573  1.00  0.00    -0.126 C  
HETATM    7  C   UNL     1     -11.018   6.632  67.663  1.00  0.00    -0.309 C  
HETATM    8  N   UNL     1     -10.365   7.370  68.771  1.00  0.00    -0.196 NA 
HETATM    9  C   UNL     1      -9.280   6.528  69.311  1.00  0.00    -0.139 C  
HETATM   10  C   UNL     1      -8.296   6.015  68.233  1.00  0.00    -0.113 C  
BRANCH   8  11
HETATM   11  C   UNL     1      -9.854   8.696  68.364  1.00  0.00    -0.172 C  
BRANCH  11  12
HETATM   12  C   UNL     1     -11.026   9.580  67.927  1.00  0.00    -0.172 C  
BRANCH  12  13
HETATM   13  C   UNL     1     -11.540  10.597  68.892  1.00  0.00    -0.320 C  
HETATM   14  C   UNL     1     -11.710  11.940  68.727  1.00  0.00    -0.379 C  
HETATM   15  C   UNL     1     -12.234  12.689  69.953  1.00  0.00    -0.238 A  
HETATM   16  C   UNL     1     -12.756  12.030  71.093  1.00  0.00    -0.365 A  
HETATM   17  C   UNL     1     -13.194  12.715  72.233  1.00  0.00    -0.465 A  
HETATM   18  C   UNL     1     -13.161  14.094  72.260  1.00  0.00    -0.540 A  
HETATM   19  C   UNL     1     -12.686  14.776  71.149  1.00  0.00    -0.402 A  
HETATM   20  C   UNL     1     -12.219  14.092  70.004  1.00  0.00    -0.352 A  
HETATM   21  S   UNL     1     -11.630  15.159  68.722  1.00  0.00    -0.353 SA 
HETATM   22  C   UNL     1     -11.249  14.068  67.381  1.00  0.00    -0.311 A  
HETATM   23  C   UNL     1     -11.318  12.664  67.429  1.00  0.00    -0.367 A  
HETATM   24  C   UNL     1     -10.982  12.016  66.214  1.00  0.00    -0.340 A  
HETATM   25  C   UNL     1     -10.526  12.688  65.073  1.00  0.00    -0.308 A  
HETATM   26  C   UNL     1     -10.450  14.059  65.061  1.00  0.00    -0.440 A  
HETATM   27 CL   UNL     1     -10.033  11.786  63.689  1.00  0.00    -0.381 Cl 
HETATM   28  C   UNL     1     -10.830  14.746  66.205  1.00  0.00    -0.321 A  
ENDBRANCH  12  13
ENDBRANCH  11  12
ENDBRANCH   8  11
ENDBRANCH   4   5
ENDBRANCH   2   4
TORSDOF 5
ENDMDL
MODEL       43
REMARK 921   NORMALIZED FREE ENERGY PREDICTED BY IDOCK:   -5.92 KCAL/MOL
REMARK 922        TOTAL FREE ENERGY PREDICTED BY IDOCK:   -8.20 KCAL/MOL
REMARK 923 INTER-LIGAND FREE ENERGY PREDICTED BY IDOCK:   -7.67 KCAL/MOL
REMARK 924 INTRA-LIGAND FREE ENERGY PREDICTED BY IDOCK:   -0.53 KCAL/MOL
REMARK 927      BINDING AFFINITY PREDICTED BY RF-SCORE:    0.00 PKD
ROOT
HETATM    1  O   UNL     1     -12.929   8.467  73.019  1.00  0.00    -0.719 OA 
HETATM    2  C   UNL     1     -13.748   9.397  72.315  1.00  0.00    -0.426 C  
HETATM    3  H   UNL     1     -13.340   8.261  73.851  1.00  0.00     0.000 HD 
ENDROOT
BRANCH   2   4
HETATM    4  C   UNL     1     -13.086   9.729  70.976  1.00  0.00    -0.291 C  
BRANCH   4   5
HETATM    5  N   UNL     1     -11.758  10.369  71.064  1.00  0.00    -0.353 NA 
HETATM    6  C   UNL     1     -10.711   9.354  70.796  1.00  0.00    -0.305 C  
HETATM    7  C   UNL     1     -10.630   8.926  69.310  1.00  0.00    -0.207 C  
HETATM    8  N   UNL     1     -10.432  10.056  68.370  1.00  0.00    -0.194 NA 
HETATM    9  C   UNL     1     -11.483  11.059  68.625  1.00  0.00    -0.308 C  
HETATM   10  C   UNL     1     -11.587  11.488  70.107  1.00  0.00    -0.249 C  
BRANCH   8  11
HETATM   11  C   UNL     1      -9.087  10.661  68.465  1.00  0.00    -0.159 C  
BRANCH  11  12
HETATM   12  C   UNL     1      -8.928  11.719  67.369  1.00  0.00    -0.173 C  
BRANCH  12  13
HETATM   13  C   UNL     1      -8.514  13.096  67.774  1.00  0.00    -0.185 C  
HETATM   14  C   UNL     1      -9.005  14.303  67.368  1.00  0.00    -0.205 C  
HETATM   15  C   UNL     1      -8.314  15.526  67.970  1.00  0.00    -0.142 A  
HETATM   16  C   UNL     1      -7.411  15.443  69.058  1.00  0.00    -0.159 A  
HETATM   17  C   UNL     1      -6.743  16.559  69.579  1.00  0.00    -0.198 A  
HETATM   18  C   UNL     1      -6.984  17.811  69.053  1.00  0.00    -0.236 A  
HETATM   19  C   UNL     1      -7.888  17.937  68.006  1.00  0.00    -0.251 A  
HETATM   20  C   UNL     1      -8.546  16.813  67.458  1.00  0.00    -0.194 A  
HETATM   21  S   UNL     1      -9.627  17.202  66.112  1.00  0.00    -0.174 SA 
HETATM   22  C   UNL     1     -10.413  15.665  65.720  1.00  0.00    -0.366 A  
HETATM   23  C   UNL     1     -10.117  14.425  66.314  1.00  0.00    -0.308 A  
HETATM   24  C   UNL     1     -10.902  13.343  65.840  1.00  0.00    -0.282 A  
HETATM   25  C   UNL     1     -11.837  13.454  64.804  1.00  0.00    -0.380 A  
HETATM   26  C   UNL     1     -12.092  14.675  64.230  1.00  0.00    -0.437 A  
HETATM   27 CL   UNL     1     -12.650  12.046  64.231  1.00  0.00    -0.425 Cl 
HETATM   28  C   UNL     1     -11.396  15.779  64.701  1.00  0.00    -0.343 A  
ENDBRANCH  12  13
ENDBRANCH  11  12
ENDBRANCH   8  11
ENDBRANCH   4   5
ENDBRANCH   2   4
TORSDOF 5
ENDMDL
MODEL       44
REMARK 921   NORMALIZED FREE ENERGY PREDICTED BY IDOCK:   -5.91 KCAL/MOL
REMARK 922        TOTAL FREE ENERGY PREDICTED BY IDOCK:   -8.19 KCAL/MOL
REMARK 923 INTER-LIGAND FREE ENERGY PREDICTED BY IDOCK:   -7.95 KCAL/MOL
REMARK 924 INTRA-LIGAND FREE ENERGY PREDICTED BY IDOCK:   -0.24 KCAL/MOL
REMARK 927      BINDING AFFINITY PREDICTED BY RF-SCORE:    0.00 PKD
ROOT
HETATM    1  O   UNL     1     -11.685  16.383  63.654  1.00  0.00    -1.520 OA 
HETATM    2  C   UNL     1     -11.143  16.513  64.966  1.00  0.00    -0.166 C  
HETATM    3  H   UNL     1     -12.302  17.089  63.504  1.00  0.00     0.000 HD 
ENDROOT
BRANCH   2   4
HETATM    4  C   UNL     1     -10.148  15.376  65.208  1.00  0.00    -0.319 C  
BRANCH   4   5
HETATM    5  N   UNL     1     -10.205  14.754  66.547  1.00  0.00    -0.269 NA 
HETATM    6  C   UNL     1     -11.623  14.585  66.944  1.00  0.00    -0.385 C  
HETATM    7  C   UNL     1     -12.352  13.460  66.168  1.00  0.00    -0.380 C  
HETATM    8  N   UNL     1     -11.685  12.139  66.259  1.00  0.00    -0.544 NA 
HETATM    9  C   UNL     1     -10.276  12.303  65.850  1.00  0.00    -0.249 C  
HETATM   10  C   UNL     1      -9.537  13.432  66.605  1.00  0.00    -0.270 C  
BRANCH   8  11
HETATM   11  C   UNL     1     -11.778  11.532  67.604  1.00  0.00    -0.208 C  
BRANCH  11  12
HETATM   12  C   UNL     1     -10.614  10.557  67.803  1.00  0.00    -0.285 C  
BRANCH  12  13
HETATM   13  C   UNL     1     -10.644   9.658  68.995  1.00  0.00    -0.237 C  
HETATM   14  C   UNL     1     -10.192   8.377  69.126  1.00  0.00    -0.217 C  
HETATM   15  C   UNL     1     -10.418   7.741  70.498  1.00  0.00    -0.217 A  
HETATM   16  C   UNL     1     -10.826   8.483  71.634  1.00  0.00    -0.356 A  
HETATM   17  C   UNL     1     -11.077   7.891  72.878  1.00  0.00    -0.442 A  
HETATM   18  C   UNL     1     -10.892   6.534  73.043  1.00  0.00    -0.291 A  
HETATM   19  C   UNL     1     -10.462   5.779  71.961  1.00  0.00    -0.267 A  
HETATM   20  C   UNL     1     -10.231   6.364  70.695  1.00  0.00    -0.190 A  
HETATM   21  S   UNL     1      -9.721   5.209  69.455  1.00  0.00    -0.212 SA 
HETATM   22  C   UNL     1      -9.368   6.211  68.038  1.00  0.00    -0.114 A  
HETATM   23  C   UNL     1      -9.575   7.600  67.952  1.00  0.00    -0.164 A  
HETATM   24  C   UNL     1      -9.194   8.176  66.715  1.00  0.00    -0.206 A  
HETATM   25  C   UNL     1      -8.733   7.435  65.620  1.00  0.00    -0.075 A  
HETATM   26  C   UNL     1      -8.559   6.077  65.727  1.00  0.00    -0.155 A  
HETATM   27 CL   UNL     1      -8.409   8.229  64.124  1.00  0.00    -0.102 Cl 
HETATM   28  C   UNL     1      -8.857   5.472  66.938  1.00  0.00    -0.112 A  
ENDBRANCH  12  13
ENDBRANCH  11  12
ENDBRANCH   8  11
ENDBRANCH   4   5
ENDBRANCH   2   4
TORSDOF 5
ENDMDL
MODEL       45
REMARK 921   NORMALIZED FREE ENERGY PREDICTED BY IDOCK:   -5.91 KCAL/MOL
REMARK 922        TOTAL FREE ENERGY PREDICTED BY IDOCK:   -8.19 KCAL/MOL
REMARK 923 INTER-LIGAND FREE ENERGY PREDICTED BY IDOCK:   -7.78 KCAL/MOL
REMARK 924 INTRA-LIGAND FREE ENERGY PREDICTED BY IDOCK:   -0.41 KCAL/MOL
REMARK 927      BINDING AFFINITY PREDICTED BY RF-SCORE:    0.00 PKD
ROOT
HETATM    1  O   UNL     1     -11.786  16.346  63.641  1.00  0.00    -1.520 OA 
HETATM    2  C   UNL     1     -11.139  16.149  64.896  1.00  0.00    -0.325 C  
HETATM    3  H   UNL     1     -12.134  17.230  63.609  1.00  0.00     0.000 HD 
ENDROOT
BRANCH   2   4
HETATM    4  C   UNL     1     -10.579  14.725  64.948  1.00  0.00    -0.406 C  
BRANCH   4   5
HETATM    5  N   UNL     1     -10.085  14.283  66.267  1.00  0.00    -0.288 NA 
HETATM    6  C   UNL     1     -11.133  14.531  67.287  1.00  0.00    -0.312 C  
HETATM    7  C   UNL     1     -12.335  13.560  67.186  1.00  0.00    -0.173 C  
HETATM    8  N   UNL     1     -11.956  12.128  67.250  1.00  0.00    -0.578 NA 
HETATM    9  C   UNL     1     -10.924  11.877  66.225  1.00  0.00    -0.302 C  
HETATM   10  C   UNL     1      -9.722  12.847  66.303  1.00  0.00    -0.268 C  
BRANCH   8  11
HETATM   11  C   UNL     1     -11.487  11.710  68.588  1.00  0.00    -0.290 C  
BRANCH  11  12
HETATM   12  C   UNL     1     -10.885  10.305  68.500  1.00  0.00    -0.281 C  
BRANCH  12  13
HETATM   13  C   UNL     1     -10.655   9.555  69.770  1.00  0.00    -0.257 C  
HETATM   14  C   UNL     1      -9.492   9.338  70.450  1.00  0.00    -0.292 C  
HETATM   15  C   UNL     1      -9.622   8.487  71.714  1.00  0.00    -0.337 A  
HETATM   16  C   UNL     1     -10.871   8.158  72.296  1.00  0.00    -0.388 A  
HETATM   17  C   UNL     1     -10.990   7.341  73.427  1.00  0.00    -0.289 A  
HETATM   18  C   UNL     1      -9.857   6.852  74.044  1.00  0.00    -0.354 A  
HETATM   19  C   UNL     1      -8.614   7.180  73.521  1.00  0.00    -0.168 A  
HETATM   20  C   UNL     1      -8.485   7.983  72.365  1.00  0.00    -0.156 A  
HETATM   21  S   UNL     1      -6.810   8.246  71.859  1.00  0.00    -0.088 SA 
HETATM   22  C   UNL     1      -6.933   9.378  70.503  1.00  0.00    -0.105 A  
HETATM   23  C   UNL     1      -8.133   9.841  69.935  1.00  0.00    -0.192 A  
HETATM   24  C   UNL     1      -7.965  10.760  68.869  1.00  0.00    -0.143 A  
HETATM   25  C   UNL     1      -6.719  11.124  68.345  1.00  0.00    -0.060 A  
HETATM   26  C   UNL     1      -5.563  10.642  68.908  1.00  0.00    -0.040 A  
HETATM   27 CL   UNL     1      -6.639  12.162  66.970  1.00  0.00    -0.125 Cl 
HETATM   28  C   UNL     1      -5.671   9.788  69.996  1.00  0.00    -0.042 A  
ENDBRANCH  12  13
ENDBRANCH  11  12
ENDBRANCH   8  11
ENDBRANCH   4   5
ENDBRANCH   2   4
TORSDOF 5
ENDMDL
MODEL       46
REMARK 921   NORMALIZED FREE ENERGY PREDICTED BY IDOCK:   -5.91 KCAL/MOL
REMARK 922        TOTAL FREE ENERGY PREDICTED BY IDOCK:   -8.19 KCAL/MOL
REMARK 923 INTER-LIGAND FREE ENERGY PREDICTED BY IDOCK:   -7.71 KCAL/MOL
REMARK 924 INTRA-LIGAND FREE ENERGY PREDICTED BY IDOCK:   -0.48 KCAL/MOL
REMARK 927      BINDING AFFINITY PREDICTED BY RF-SCORE:    0.00 PKD
ROOT
HETATM    1  O   UNL     1      -9.516  20.403  66.187  1.00  0.00    -0.627 OA 
HETATM    2  C   UNL     1      -8.982  19.927  67.420  1.00  0.00    -0.337 C  
HETATM    3  H   UNL     1      -9.498  21.353  66.189  1.00  0.00     0.000 HD 
ENDROOT
BRANCH   2   4
HETATM    4  C   UNL     1      -9.011  18.397  67.417  1.00  0.00    -0.261 C  
BRANCH   4   5
HETATM    5  N   UNL     1     -10.345  17.786  67.248  1.00  0.00    -0.353 NA 
HETATM    6  C   UNL     1     -10.320  16.882  66.073  1.00  0.00    -0.325 C  
HETATM    7  C   UNL     1      -9.528  15.574  66.316  1.00  0.00    -0.323 C  
HETATM    8  N   UNL     1      -9.999  14.797  67.489  1.00  0.00    -0.219 NA 
HETATM    9  C   UNL     1     -10.010  15.692  68.662  1.00  0.00    -0.208 C  
HETATM   10  C   UNL     1     -10.785  17.010  68.431  1.00  0.00    -0.361 C  
BRANCH   8  11
HETATM   11  C   UNL     1     -11.326  14.179  67.281  1.00  0.00    -0.332 C  
BRANCH  11  12
HETATM   12  C   UNL     1     -11.175  12.655  67.237  1.00  0.00    -0.346 C  
BRANCH  12  13
HETATM   13  C   UNL     1     -11.561  11.873  68.449  1.00  0.00    -0.376 C  
HETATM   14  C   UNL     1     -10.948  10.794  69.015  1.00  0.00    -0.289 C  
HETATM   15  C   UNL     1     -11.646  10.217  70.247  1.00  0.00    -0.379 A  
HETATM   16  C   UNL     1     -12.698  10.885  70.920  1.00  0.00    -0.464 A  
HETATM   17  C   UNL     1     -13.366  10.334  72.021  1.00  0.00    -0.466 A  
HETATM   18  C   UNL     1     -12.980   9.106  72.515  1.00  0.00    -0.416 A  
HETATM   19  C   UNL     1     -11.931   8.435  71.901  1.00  0.00    -0.397 A  
HETATM   20  C   UNL     1     -11.268   8.972  70.774  1.00  0.00    -0.275 A  
HETATM   21  S   UNL     1      -9.986   7.933  70.136  1.00  0.00    -0.192 SA 
HETATM   22  C   UNL     1      -9.242   8.892  68.847  1.00  0.00    -0.140 A  
HETATM   23  C   UNL     1      -9.692  10.150  68.406  1.00  0.00    -0.157 A  
HETATM   24  C   UNL     1      -8.913  10.724  67.370  1.00  0.00    -0.141 A  
HETATM   25  C   UNL     1      -7.835  10.075  66.756  1.00  0.00    -0.110 A  
HETATM   26  C   UNL     1      -7.429   8.838  67.195  1.00  0.00    -0.088 A  
HETATM   27 CL   UNL     1      -7.031  10.822  65.426  1.00  0.00    -0.003 Cl 
HETATM   28  C   UNL     1      -8.119   8.259  68.250  1.00  0.00    -0.124 A  
ENDBRANCH  12  13
ENDBRANCH  11  12
ENDBRANCH   8  11
ENDBRANCH   4   5
ENDBRANCH   2   4
TORSDOF 5
ENDMDL
MODEL       47
REMARK 921   NORMALIZED FREE ENERGY PREDICTED BY IDOCK:   -5.90 KCAL/MOL
REMARK 922        TOTAL FREE ENERGY PREDICTED BY IDOCK:   -8.18 KCAL/MOL
REMARK 923 INTER-LIGAND FREE ENERGY PREDICTED BY IDOCK:   -7.66 KCAL/MOL
REMARK 924 INTRA-LIGAND FREE ENERGY PREDICTED BY IDOCK:   -0.52 KCAL/MOL
REMARK 927      BINDING AFFINITY PREDICTED BY RF-SCORE:    0.00 PKD
ROOT
HETATM    1  O   UNL     1      -8.591  19.741  67.388  1.00  0.00    -0.300 OA 
HETATM    2  C   UNL     1      -9.858  19.707  68.041  1.00  0.00    -0.415 C  
HETATM    3  H   UNL     1      -8.164  20.566  67.585  1.00  0.00     0.000 HD 
ENDROOT
BRANCH   2   4
HETATM    4  C   UNL     1     -10.545  18.377  67.725  1.00  0.00    -0.391 C  
BRANCH   4   5
HETATM    5  N   UNL     1      -9.794  17.165  68.108  1.00  0.00    -0.269 NA 
HETATM    6  C   UNL     1     -10.409  16.575  69.322  1.00  0.00    -0.318 C  
HETATM    7  C   UNL     1     -11.772  15.891  69.053  1.00  0.00    -0.370 C  
HETATM    8  N   UNL     1     -11.721  14.844  68.004  1.00  0.00    -0.336 NA 
HETATM    9  C   UNL     1     -11.123  15.434  66.791  1.00  0.00    -0.244 C  
HETATM   10  C   UNL     1      -9.767  16.134  67.044  1.00  0.00    -0.230 C  
BRANCH   8  11
HETATM   11  C   UNL     1     -10.983  13.635  68.425  1.00  0.00    -0.262 C  
BRANCH  11  12
HETATM   12  C   UNL     1     -11.665  12.394  67.841  1.00  0.00    -0.421 C  
BRANCH  12  13
HETATM   13  C   UNL     1     -11.010  11.706  66.688  1.00  0.00    -0.349 C  
HETATM   14  C   UNL     1     -10.421  10.477  66.633  1.00  0.00    -0.290 C  
HETATM   15  C   UNL     1      -9.816  10.102  65.280  1.00  0.00    -0.388 A  
HETATM   16  C   UNL     1     -10.060  10.840  64.095  1.00  0.00    -0.418 A  
HETATM   17  C   UNL     1      -9.468  10.522  62.867  1.00  0.00    -0.360 A  
HETATM   18  C   UNL     1      -8.636   9.426  62.768  1.00  0.00    -0.221 A  
HETATM   19  C   UNL     1      -8.398   8.659  63.901  1.00  0.00    -0.119 A  
HETATM   20  C   UNL     1      -8.971   8.988  65.150  1.00  0.00    -0.165 A  
HETATM   21  S   UNL     1      -8.505   7.895  66.461  1.00  0.00    -0.140 SA 
HETATM   22  C   UNL     1      -9.459   8.441  67.850  1.00  0.00    -0.146 A  
HETATM   23  C   UNL     1     -10.298   9.569  67.867  1.00  0.00    -0.276 A  
HETATM   24  C   UNL     1     -10.971   9.784  69.096  1.00  0.00    -0.205 A  
HETATM   25  C   UNL     1     -10.765   9.007  70.243  1.00  0.00    -0.230 A  
HETATM   26  C   UNL     1      -9.924   7.921  70.202  1.00  0.00    -0.190 A  
HETATM   27 CL   UNL     1     -11.550   9.432  71.717  1.00  0.00    -0.459 Cl 
HETATM   28  C   UNL     1      -9.290   7.629  69.003  1.00  0.00    -0.146 A  
ENDBRANCH  12  13
ENDBRANCH  11  12
ENDBRANCH   8  11
ENDBRANCH   4   5
ENDBRANCH   2   4
TORSDOF 5
ENDMDL
MODEL       48
REMARK 921   NORMALIZED FREE ENERGY PREDICTED BY IDOCK:   -5.89 KCAL/MOL
REMARK 922        TOTAL FREE ENERGY PREDICTED BY IDOCK:   -8.17 KCAL/MOL
REMARK 923 INTER-LIGAND FREE ENERGY PREDICTED BY IDOCK:   -7.52 KCAL/MOL
REMARK 924 INTRA-LIGAND FREE ENERGY PREDICTED BY IDOCK:   -0.65 KCAL/MOL
REMARK 927      BINDING AFFINITY PREDICTED BY RF-SCORE:    0.00 PKD
ROOT
HETATM    1  O   UNL     1      -8.368   2.828  71.042  1.00  0.00    -0.056 OA 
HETATM    2  C   UNL     1      -9.494   3.545  70.541  1.00  0.00    -0.179 C  
HETATM    3  H   UNL     1      -8.089   2.197  70.389  1.00  0.00     0.000 HD 
ENDROOT
BRANCH   2   4
HETATM    4  C   UNL     1      -9.944   4.561  71.593  1.00  0.00    -0.196 C  
BRANCH   4   5
HETATM    5  N   UNL     1      -9.507   5.953  71.361  1.00  0.00    -0.150 NA 
HETATM    6  C   UNL     1     -10.413   6.588  70.374  1.00  0.00    -0.212 C  
HETATM    7  C   UNL     1     -11.817   6.910  70.941  1.00  0.00    -0.376 C  
HETATM    8  N   UNL     1     -11.793   7.756  72.159  1.00  0.00    -0.309 NA 
HETATM    9  C   UNL     1     -10.903   7.117  73.148  1.00  0.00    -0.335 C  
HETATM   10  C   UNL     1      -9.501   6.776  72.594  1.00  0.00    -0.138 C  
BRANCH   8  11
HETATM   11  C   UNL     1     -11.374   9.148  71.892  1.00  0.00    -0.346 C  
BRANCH  11  12
HETATM   12  C   UNL     1     -12.277   9.752  70.812  1.00  0.00    -0.342 C  
BRANCH  12  13
HETATM   13  C   UNL     1     -12.177  11.218  70.548  1.00  0.00    -0.474 C  
HETATM   14  C   UNL     1     -11.675  11.871  69.461  1.00  0.00    -0.410 C  
HETATM   15  C   UNL     1     -11.702  13.397  69.544  1.00  0.00    -0.385 A  
HETATM   16  C   UNL     1     -12.421  14.102  70.541  1.00  0.00    -0.431 A  
HETATM   17  C   UNL     1     -12.407  15.499  70.643  1.00  0.00    -0.462 A  
HETATM   18  C   UNL     1     -11.702  16.248  69.724  1.00  0.00    -0.065 A  
HETATM   19  C   UNL     1     -11.012  15.594  68.713  1.00  0.00    -0.281 A  
HETATM   20  C   UNL     1     -10.999  14.184  68.618  1.00  0.00    -0.258 A  
HETATM   21  S   UNL     1     -10.029  13.566  67.273  1.00  0.00    -0.240 SA 
HETATM   22  C   UNL     1     -10.300  11.817  67.301  1.00  0.00    -0.206 A  
HETATM   23  C   UNL     1     -11.046  11.125  68.273  1.00  0.00    -0.310 A  
HETATM   24  C   UNL     1     -11.133   9.726  68.062  1.00  0.00    -0.168 A  
HETATM   25  C   UNL     1     -10.465   9.050  67.033  1.00  0.00    -0.246 A  
HETATM   26  C   UNL     1      -9.728   9.750  66.109  1.00  0.00    -0.309 A  
HETATM   27 CL   UNL     1     -10.549   7.331  66.943  1.00  0.00    -0.394 Cl 
HETATM   28  C   UNL     1      -9.664  11.130  66.233  1.00  0.00    -0.244 A  
ENDBRANCH  12  13
ENDBRANCH  11  12
ENDBRANCH   8  11
ENDBRANCH   4   5
ENDBRANCH   2   4
TORSDOF 5
ENDMDL
MODEL       49
REMARK 921   NORMALIZED FREE ENERGY PREDICTED BY IDOCK:   -5.87 KCAL/MOL
REMARK 922        TOTAL FREE ENERGY PREDICTED BY IDOCK:   -8.14 KCAL/MOL
REMARK 923 INTER-LIGAND FREE ENERGY PREDICTED BY IDOCK:   -7.90 KCAL/MOL
REMARK 924 INTRA-LIGAND FREE ENERGY PREDICTED BY IDOCK:   -0.24 KCAL/MOL
REMARK 927      BINDING AFFINITY PREDICTED BY RF-SCORE:    0.00 PKD
ROOT
HETATM    1  O   UNL     1     -13.137  15.509  70.287  1.00  0.00    -0.654 OA 
HETATM    2  C   UNL     1     -11.838  15.902  69.852  1.00  0.00    -0.300 C  
HETATM    3  H   UNL     1     -13.187  15.600  71.232  1.00  0.00     0.000 HD 
ENDROOT
BRANCH   2   4
HETATM    4  C   UNL     1     -11.758  15.755  68.331  1.00  0.00    -0.271 C  
BRANCH   4   5
HETATM    5  N   UNL     1     -10.696  14.858  67.832  1.00  0.00    -0.260 NA 
HETATM    6  C   UNL     1     -10.666  13.631  68.663  1.00  0.00    -0.256 C  
HETATM    7  C   UNL     1     -11.865  12.684  68.409  1.00  0.00    -0.301 C  
HETATM    8  N   UNL     1     -12.020  12.280  66.991  1.00  0.00    -0.590 NA 
HETATM    9  C   UNL     1     -12.065  13.501  66.164  1.00  0.00    -0.436 C  
HETATM   10  C   UNL     1     -10.882  14.465  66.415  1.00  0.00    -0.314 C  
BRANCH   8  11
HETATM   11  C   UNL     1     -10.956  11.365  66.528  1.00  0.00    -0.272 C  
BRANCH  11  12
HETATM   12  C   UNL     1     -10.349  10.639  67.732  1.00  0.00    -0.239 C  
BRANCH  12  13
HETATM   13  C   UNL     1     -10.068   9.178  67.607  1.00  0.00    -0.273 C  
HETATM   14  C   UNL     1     -10.407   8.155  68.444  1.00  0.00    -0.236 C  
HETATM   15  C   UNL     1      -9.921   6.771  68.016  1.00  0.00    -0.162 A  
HETATM   16  C   UNL     1      -9.387   6.505  66.731  1.00  0.00    -0.179 A  
HETATM   17  C   UNL     1      -8.900   5.247  66.355  1.00  0.00    -0.123 A  
HETATM   18  C   UNL     1      -8.965   4.192  67.243  1.00  0.00    -0.142 A  
HETATM   19  C   UNL     1      -9.512   4.406  68.501  1.00  0.00    -0.217 A  
HETATM   20  C   UNL     1      -9.982   5.679  68.897  1.00  0.00    -0.166 A  
HETATM   21  S   UNL     1     -10.606   5.728  70.551  1.00  0.00    -0.292 SA 
HETATM   22  C   UNL     1     -11.248   7.369  70.731  1.00  0.00    -0.271 A  
HETATM   23  C   UNL     1     -11.151   8.391  69.769  1.00  0.00    -0.062 A  
HETATM   24  C   UNL     1     -11.763   9.613  70.144  1.00  0.00    -0.143 A  
HETATM   25  C   UNL     1     -12.344   9.840  71.398  1.00  0.00    -0.388 A  
HETATM   26  C   UNL     1     -12.408   8.829  72.325  1.00  0.00    -0.448 A  
HETATM   27 CL   UNL     1     -12.956  11.405  71.786  1.00  0.00    -0.561 Cl 
HETATM   28  C   UNL     1     -11.879   7.593  71.984  1.00  0.00    -0.342 A  
ENDBRANCH  12  13
ENDBRANCH  11  12
ENDBRANCH   8  11
ENDBRANCH   4   5
ENDBRANCH   2   4
TORSDOF 5
ENDMDL
MODEL       50
REMARK 921   NORMALIZED FREE ENERGY PREDICTED BY IDOCK:   -5.86 KCAL/MOL
REMARK 922        TOTAL FREE ENERGY PREDICTED BY IDOCK:   -8.12 KCAL/MOL
REMARK 923 INTER-LIGAND FREE ENERGY PREDICTED BY IDOCK:   -7.68 KCAL/MOL
REMARK 924 INTRA-LIGAND FREE ENERGY PREDICTED BY IDOCK:   -0.44 KCAL/MOL
REMARK 927      BINDING AFFINITY PREDICTED BY RF-SCORE:    0.00 PKD
ROOT
HETATM    1  O   UNL     1     -10.900  19.041  67.171  1.00  0.00    -0.462 OA 
HETATM    2  C   UNL     1     -10.024  18.435  66.223  1.00  0.00    -0.366 C  
HETATM    3  H   UNL     1     -10.473  19.805  67.541  1.00  0.00     0.000 HD 
ENDROOT
BRANCH   2   4
HETATM    4  C   UNL     1     -10.712  17.205  65.627  1.00  0.00    -0.136 C  
BRANCH   4   5
HETATM    5  N   UNL     1     -10.050  15.912  65.897  1.00  0.00    -0.327 NA 
HETATM    6  C   UNL     1     -10.110  15.630  67.351  1.00  0.00    -0.251 C  
HETATM    7  C   UNL     1     -11.524  15.240  67.848  1.00  0.00    -0.316 C  
HETATM    8  N   UNL     1     -12.116  14.087  67.127  1.00  0.00    -0.429 NA 
HETATM    9  C   UNL     1     -12.070  14.373  65.680  1.00  0.00    -0.354 C  
HETATM   10  C   UNL     1     -10.668  14.778  65.170  1.00  0.00    -0.415 C  
BRANCH   8  11
HETATM   11  C   UNL     1     -11.447  12.805  67.435  1.00  0.00    -0.340 C  
BRANCH  11  12
HETATM   12  C   UNL     1     -11.191  12.714  68.942  1.00  0.00    -0.329 C  
BRANCH  12  13
HETATM   13  C   UNL     1     -11.715  11.524  69.676  1.00  0.00    -0.419 C  
HETATM   14  C   UNL     1     -11.124  10.314  69.899  1.00  0.00    -0.362 C  
HETATM   15  C   UNL     1     -11.974   9.304  70.670  1.00  0.00    -0.206 A  
HETATM   16  C   UNL     1     -13.174   9.655  71.335  1.00  0.00    -0.469 A  
HETATM   17  C   UNL     1     -13.975   8.719  72.002  1.00  0.00    -0.511 A  
HETATM   18  C   UNL     1     -13.583   7.398  72.061  1.00  0.00    -0.203 A  
HETATM   19  C   UNL     1     -12.396   7.021  71.449  1.00  0.00    -0.419 A  
HETATM   20  C   UNL     1     -11.595   7.954  70.752  1.00  0.00    -0.247 A  
HETATM   21  S   UNL     1     -10.145   7.249  70.022  1.00  0.00    -0.192 SA 
HETATM   22  C   UNL     1      -9.271   8.635  69.352  1.00  0.00    -0.150 A  
HETATM   23  C   UNL     1      -9.736   9.962  69.340  1.00  0.00    -0.228 A  
HETATM   24  C   UNL     1      -8.840  10.896  68.762  1.00  0.00    -0.162 A  
HETATM   25  C   UNL     1      -7.625  10.540  68.162  1.00  0.00    -0.091 A  
HETATM   26  C   UNL     1      -7.205   9.233  68.172  1.00  0.00    -0.078 A  
HETATM   27 CL   UNL     1      -6.668  11.746  67.386  1.00  0.00    -0.107 Cl 
HETATM   28  C   UNL     1      -8.017   8.288  68.782  1.00  0.00    -0.114 A  
ENDBRANCH  12  13
ENDBRANCH  11  12
ENDBRANCH   8  11
ENDBRANCH   4   5
ENDBRANCH   2   4
TORSDOF 5
ENDMDL
MODEL       51
REMARK 921   NORMALIZED FREE ENERGY PREDICTED BY IDOCK:   -5.85 KCAL/MOL
REMARK 922        TOTAL FREE ENERGY PREDICTED BY IDOCK:   -8.11 KCAL/MOL
REMARK 923 INTER-LIGAND FREE ENERGY PREDICTED BY IDOCK:   -7.48 KCAL/MOL
REMARK 924 INTRA-LIGAND FREE ENERGY PREDICTED BY IDOCK:   -0.63 KCAL/MOL
REMARK 927      BINDING AFFINITY PREDICTED BY RF-SCORE:    0.00 PKD
ROOT
HETATM    1  O   UNL     1     -12.053  16.202  63.897  1.00  0.00    -1.283 OA 
HETATM    2  C   UNL     1     -12.258  14.796  64.013  1.00  0.00    -0.155 C  
HETATM    3  H   UNL     1     -11.872  16.413  62.988  1.00  0.00     0.000 HD 
ENDROOT
BRANCH   2   4
HETATM    4  C   UNL     1     -12.551  14.455  65.476  1.00  0.00    -0.333 C  
BRANCH   4   5
HETATM    5  N   UNL     1     -11.428  14.661  66.414  1.00  0.00    -0.354 NA 
HETATM    6  C   UNL     1     -11.763  14.035  67.716  1.00  0.00    -0.368 C  
HETATM    7  C   UNL     1     -11.721  12.487  67.687  1.00  0.00    -0.361 C  
HETATM    8  N   UNL     1     -10.426  11.931  67.225  1.00  0.00    -0.218 NA 
HETATM    9  C   UNL     1     -10.100  12.542  65.921  1.00  0.00    -0.254 C  
HETATM   10  C   UNL     1     -10.151  14.087  65.929  1.00  0.00    -0.321 C  
BRANCH   8  11
HETATM   11  C   UNL     1      -9.328  12.132  68.194  1.00  0.00    -0.204 C  
BRANCH  11  12
HETATM   12  C   UNL     1      -8.801  10.769  68.654  1.00  0.00    -0.152 C  
BRANCH  12  13
HETATM   13  C   UNL     1      -8.615   9.702  67.627  1.00  0.00    -0.126 C  
HETATM   14  C   UNL     1      -9.161   8.453  67.565  1.00  0.00    -0.158 C  
HETATM   15  C   UNL     1      -8.718   7.603  66.374  1.00  0.00    -0.166 A  
HETATM   16  C   UNL     1      -8.004   8.134  65.272  1.00  0.00    -0.126 A  
HETATM   17  C   UNL     1      -7.558   7.345  64.204  1.00  0.00    -0.109 A  
HETATM   18  C   UNL     1      -7.845   5.996  64.180  1.00  0.00    -0.117 A  
HETATM   19  C   UNL     1      -8.572   5.445  65.227  1.00  0.00    -0.151 A  
HETATM   20  C   UNL     1      -9.003   6.229  66.321  1.00  0.00    -0.155 A  
HETATM   21  S   UNL     1      -9.882   5.315  67.555  1.00  0.00    -0.167 SA 
HETATM   22  C   UNL     1     -10.419   6.541  68.714  1.00  0.00    -0.213 A  
HETATM   23  C   UNL     1     -10.090   7.908  68.662  1.00  0.00    -0.210 A  
HETATM   24  C   UNL     1     -10.661   8.691  69.697  1.00  0.00    -0.204 A  
HETATM   25  C   UNL     1     -11.419   8.158  70.748  1.00  0.00    -0.261 A  
HETATM   26  C   UNL     1     -11.708   6.816  70.782  1.00  0.00    -0.439 A  
HETATM   27 CL   UNL     1     -11.966   9.190  72.016  1.00  0.00    -0.438 Cl 
HETATM   28  C   UNL     1     -11.226   6.016  69.758  1.00  0.00    -0.440 A  
ENDBRANCH  12  13
ENDBRANCH  11  12
ENDBRANCH   8  11
ENDBRANCH   4   5
ENDBRANCH   2   4
TORSDOF 5
ENDMDL
MODEL       52
REMARK 921   NORMALIZED FREE ENERGY PREDICTED BY IDOCK:   -5.84 KCAL/MOL
REMARK 922        TOTAL FREE ENERGY PREDICTED BY IDOCK:   -8.10 KCAL/MOL
REMARK 923 INTER-LIGAND FREE ENERGY PREDICTED BY IDOCK:   -7.66 KCAL/MOL
REMARK 924 INTRA-LIGAND FREE ENERGY PREDICTED BY IDOCK:   -0.43 KCAL/MOL
REMARK 927      BINDING AFFINITY PREDICTED BY RF-SCORE:    0.00 PKD
ROOT
HETATM    1  O   UNL     1     -13.502  12.039  64.262  1.00  0.00    -0.654 OA 
HETATM    2  C   UNL     1     -12.573  12.597  63.335  1.00  0.00    -0.260 C  
HETATM    3  H   UNL     1     -14.227  12.642  64.373  1.00  0.00     0.000 HD 
ENDROOT
BRANCH   2   4
HETATM    4  C   UNL     1     -11.405  11.625  63.156  1.00  0.00    -0.057 C  
BRANCH   4   5
HETATM    5  N   UNL     1     -10.127  12.048  63.764  1.00  0.00    -0.383 NA 
HETATM    6  C   UNL     1     -10.398  12.674  65.081  1.00  0.00    -0.292 C  
HETATM    7  C   UNL     1     -10.816  11.659  66.173  1.00  0.00    -0.294 C  
HETATM    8  N   UNL     1      -9.841  10.560  66.375  1.00  0.00    -0.202 NA 
HETATM    9  C   UNL     1      -9.581   9.926  65.068  1.00  0.00    -0.297 C  
HETATM   10  C   UNL     1      -9.176  10.928  63.961  1.00  0.00    -0.197 C  
BRANCH   8  11
HETATM   11  C   UNL     1      -8.581  11.009  67.006  1.00  0.00    -0.140 C  
BRANCH  11  12
HETATM   12  C   UNL     1      -8.866  11.466  68.439  1.00  0.00    -0.167 C  
BRANCH  12  13
HETATM   13  C   UNL     1      -9.829  10.670  69.256  1.00  0.00    -0.201 C  
HETATM   14  C   UNL     1     -10.959  11.075  69.903  1.00  0.00    -0.218 C  
HETATM   15  C   UNL     1     -11.695   9.984  70.681  1.00  0.00    -0.421 A  
HETATM   16  C   UNL     1     -11.396   8.606  70.545  1.00  0.00    -0.241 A  
HETATM   17  C   UNL     1     -12.040   7.611  71.292  1.00  0.00    -0.337 A  
HETATM   18  C   UNL     1     -13.038   7.956  72.180  1.00  0.00    -0.187 A  
HETATM   19  C   UNL     1     -13.381   9.294  72.316  1.00  0.00    -0.547 A  
HETATM   20  C   UNL     1     -12.719  10.307  71.585  1.00  0.00    -0.456 A  
HETATM   21  S   UNL     1     -13.297  11.941  71.942  1.00  0.00    -0.124 SA 
HETATM   22  C   UNL     1     -12.417  12.976  70.807  1.00  0.00    -0.302 A  
HETATM   23  C   UNL     1     -11.414  12.544  69.921  1.00  0.00    -0.159 A  
HETATM   24  C   UNL     1     -10.874  13.564  69.099  1.00  0.00    -0.173 A  
HETATM   25  C   UNL     1     -11.226  14.916  69.203  1.00  0.00    -0.279 A  
HETATM   26  C   UNL     1     -12.196  15.312  70.091  1.00  0.00    -0.402 A  
HETATM   27 CL   UNL     1     -10.419  16.088  68.230  1.00  0.00    -0.260 Cl 
HETATM   28  C   UNL     1     -12.802  14.342  70.875  1.00  0.00    -0.416 A  
ENDBRANCH  12  13
ENDBRANCH  11  12
ENDBRANCH   8  11
ENDBRANCH   4   5
ENDBRANCH   2   4
TORSDOF 5
ENDMDL
MODEL       53
REMARK 921   NORMALIZED FREE ENERGY PREDICTED BY IDOCK:   -5.71 KCAL/MOL
REMARK 922        TOTAL FREE ENERGY PREDICTED BY IDOCK:   -7.93 KCAL/MOL
REMARK 923 INTER-LIGAND FREE ENERGY PREDICTED BY IDOCK:   -7.57 KCAL/MOL
REMARK 924 INTRA-LIGAND FREE ENERGY PREDICTED BY IDOCK:   -0.36 KCAL/MOL
REMARK 927      BINDING AFFINITY PREDICTED BY RF-SCORE:    0.00 PKD
ROOT
HETATM    1  O   UNL     1     -11.806   4.389  73.692  1.00  0.00    -0.200 OA 
HETATM    2  C   UNL     1     -10.454   4.641  74.069  1.00  0.00    -0.267 C  
HETATM    3  H   UNL     1     -12.090   3.573  74.087  1.00  0.00     0.000 HD 
ENDROOT
BRANCH   2   4
HETATM    4  C   UNL     1      -9.997   5.955  73.432  1.00  0.00    -0.176 C  
BRANCH   4   5
HETATM    5  N   UNL     1      -9.446   5.842  72.067  1.00  0.00    -0.150 NA 
HETATM    6  C   UNL     1     -10.563   5.698  71.102  1.00  0.00    -0.245 C  
HETATM    7  C   UNL     1     -11.367   7.004  70.888  1.00  0.00    -0.295 C  
HETATM    8  N   UNL     1     -10.537   8.158  70.466  1.00  0.00    -0.216 NA 
HETATM    9  C   UNL     1      -9.433   8.312  71.434  1.00  0.00    -0.175 C  
HETATM   10  C   UNL     1      -8.628   7.013  71.670  1.00  0.00    -0.116 C  
BRANCH   8  11
HETATM   11  C   UNL     1     -10.018   8.028  69.088  1.00  0.00    -0.188 C  
BRANCH  11  12
HETATM   12  C   UNL     1     -10.580   9.161  68.224  1.00  0.00    -0.223 C  
BRANCH  12  13
HETATM   13  C   UNL     1     -11.147  10.358  68.914  1.00  0.00    -0.296 C  
HETATM   14  C   UNL     1     -11.364  11.615  68.430  1.00  0.00    -0.339 C  
HETATM   15  C   UNL     1     -11.936  12.614  69.437  1.00  0.00    -0.318 A  
HETATM   16  C   UNL     1     -12.452  12.227  70.698  1.00  0.00    -0.323 A  
HETATM   17  C   UNL     1     -12.933  13.147  71.637  1.00  0.00    -0.429 A  
HETATM   18  C   UNL     1     -12.952  14.493  71.333  1.00  0.00    -0.403 A  
HETATM   19  C   UNL     1     -12.485  14.907  70.093  1.00  0.00    -0.353 A  
HETATM   20  C   UNL     1     -11.973  13.988  69.150  1.00  0.00    -0.360 A  
HETATM   21  S   UNL     1     -11.403  14.740  67.654  1.00  0.00    -0.349 SA 
HETATM   22  C   UNL     1     -10.960  13.376  66.615  1.00  0.00    -0.287 A  
HETATM   23  C   UNL     1     -10.978  12.022  66.999  1.00  0.00    -0.323 A  
HETATM   24  C   UNL     1     -10.598  11.116  65.978  1.00  0.00    -0.298 A  
HETATM   25  C   UNL     1     -10.148  11.513  64.712  1.00  0.00    -0.269 A  
HETATM   26  C   UNL     1     -10.123  12.843  64.372  1.00  0.00    -0.265 A  
HETATM   27 CL   UNL     1      -9.600  10.326  63.588  1.00  0.00    -0.350 Cl 
HETATM   28  C   UNL     1     -10.547  13.768  65.314  1.00  0.00    -0.363 A  
ENDBRANCH  12  13
ENDBRANCH  11  12
ENDBRANCH   8  11
ENDBRANCH   4   5
ENDBRANCH   2   4
TORSDOF 5
ENDMDL
MODEL       54
REMARK 921   NORMALIZED FREE ENERGY PREDICTED BY IDOCK:   -5.70 KCAL/MOL
REMARK 922        TOTAL FREE ENERGY PREDICTED BY IDOCK:   -7.92 KCAL/MOL
REMARK 923 INTER-LIGAND FREE ENERGY PREDICTED BY IDOCK:   -7.35 KCAL/MOL
REMARK 924 INTRA-LIGAND FREE ENERGY PREDICTED BY IDOCK:   -0.57 KCAL/MOL
REMARK 927      BINDING AFFINITY PREDICTED BY RF-SCORE:    0.00 PKD
ROOT
HETATM    1  O   UNL     1      -7.796  19.392  68.755  1.00  0.00    -0.348 OA 
HETATM    2  C   UNL     1      -7.124  18.261  68.206  1.00  0.00    -0.248 C  
HETATM    3  H   UNL     1      -7.149  20.020  69.056  1.00  0.00     0.000 HD 
ENDROOT
BRANCH   2   4
HETATM    4  C   UNL     1      -8.166  17.251  67.721  1.00  0.00    -0.203 C  
BRANCH   4   5
HETATM    5  N   UNL     1      -9.231  16.920  68.690  1.00  0.00    -0.259 NA 
HETATM    6  C   UNL     1     -10.501  16.694  67.958  1.00  0.00    -0.320 C  
HETATM    7  C   UNL     1     -10.529  15.364  67.165  1.00  0.00    -0.290 C  
HETATM    8  N   UNL     1     -10.252  14.166  67.994  1.00  0.00    -0.228 NA 
HETATM    9  C   UNL     1      -8.981  14.383  68.711  1.00  0.00    -0.131 C  
HETATM   10  C   UNL     1      -8.930  15.714  69.497  1.00  0.00    -0.231 C  
BRANCH   8  11
HETATM   11  C   UNL     1     -11.345  13.847  68.937  1.00  0.00    -0.282 C  
BRANCH  11  12
HETATM   12  C   UNL     1     -12.012  12.534  68.517  1.00  0.00    -0.266 C  
BRANCH  12  13
HETATM   13  C   UNL     1     -11.820  11.335  69.386  1.00  0.00    -0.424 C  
HETATM   14  C   UNL     1     -11.151  10.175  69.127  1.00  0.00    -0.257 C  
HETATM   15  C   UNL     1     -11.186   9.135  70.248  1.00  0.00    -0.249 A  
HETATM   16  C   UNL     1     -11.645   9.428  71.556  1.00  0.00    -0.467 A  
HETATM   17  C   UNL     1     -11.720   8.463  72.568  1.00  0.00    -0.429 A  
HETATM   18  C   UNL     1     -11.300   7.173  72.320  1.00  0.00    -0.303 A  
HETATM   19  C   UNL     1     -10.813   6.856  71.059  1.00  0.00    -0.272 A  
HETATM   20  C   UNL     1     -10.759   7.817  70.024  1.00  0.00    -0.244 A  
HETATM   21  S   UNL     1     -10.135   7.186  68.493  1.00  0.00    -0.174 SA 
HETATM   22  C   UNL     1     -10.041   8.604  67.438  1.00  0.00    -0.229 A  
HETATM   23  C   UNL     1     -10.483   9.897  67.771  1.00  0.00    -0.292 A  
HETATM   24  C   UNL     1     -10.278  10.869  66.759  1.00  0.00    -0.277 A  
HETATM   25  C   UNL     1      -9.764  10.575  65.490  1.00  0.00    -0.242 A  
HETATM   26  C   UNL     1      -9.357   9.298  65.186  1.00  0.00    -0.239 A  
HETATM   27 CL   UNL     1      -9.667  11.816  64.297  1.00  0.00    -0.207 Cl 
HETATM   28  C   UNL     1      -9.478   8.322  66.164  1.00  0.00    -0.241 A  
ENDBRANCH  12  13
ENDBRANCH  11  12
ENDBRANCH   8  11
ENDBRANCH   4   5
ENDBRANCH   2   4
TORSDOF 5
ENDMDL
MODEL       55
REMARK 921   NORMALIZED FREE ENERGY PREDICTED BY IDOCK:   -5.69 KCAL/MOL
REMARK 922        TOTAL FREE ENERGY PREDICTED BY IDOCK:   -7.91 KCAL/MOL
REMARK 923 INTER-LIGAND FREE ENERGY PREDICTED BY IDOCK:   -7.47 KCAL/MOL
REMARK 924 INTRA-LIGAND FREE ENERGY PREDICTED BY IDOCK:   -0.43 KCAL/MOL
REMARK 927      BINDING AFFINITY PREDICTED BY RF-SCORE:    0.00 PKD
ROOT
HETATM    1  O   UNL     1      -7.021   1.589  65.340  1.00  0.00    -0.040 OA 
HETATM    2  C   UNL     1      -7.566   2.679  64.601  1.00  0.00    -0.075 C  
HETATM    3  H   UNL     1      -6.793   0.891  64.737  1.00  0.00     0.000 HD 
ENDROOT
BRANCH   2   4
HETATM    4  C   UNL     1      -7.934   3.803  65.572  1.00  0.00    -0.093 C  
BRANCH   4   5
HETATM    5  N   UNL     1      -8.885   4.807  65.053  1.00  0.00    -0.149 NA 
HETATM    6  C   UNL     1     -10.196   4.626  65.722  1.00  0.00    -0.258 C  
HETATM    7  C   UNL     1     -10.204   5.086  67.201  1.00  0.00    -0.186 C  
HETATM    8  N   UNL     1      -9.776   6.492  67.394  1.00  0.00    -0.122 NA 
HETATM    9  C   UNL     1      -8.464   6.670  66.742  1.00  0.00    -0.117 C  
HETATM   10  C   UNL     1      -8.434   6.203  65.268  1.00  0.00    -0.120 C  
BRANCH   8  11
HETATM   11  C   UNL     1     -10.758   7.474  66.885  1.00  0.00    -0.229 C  
BRANCH  11  12
HETATM   12  C   UNL     1     -10.221   8.891  67.107  1.00  0.00    -0.339 C  
BRANCH  12  13
HETATM   13  C   UNL     1     -10.874   9.737  68.151  1.00  0.00    -0.264 C  
HETATM   14  C   UNL     1     -11.272  11.040  68.086  1.00  0.00    -0.364 C  
HETATM   15  C   UNL     1     -11.883  11.602  69.370  1.00  0.00    -0.408 A  
HETATM   16  C   UNL     1     -12.256  10.787  70.467  1.00  0.00    -0.457 A  
HETATM   17  C   UNL     1     -12.773  11.308  71.660  1.00  0.00    -0.448 A  
HETATM   18  C   UNL     1     -12.972  12.667  71.786  1.00  0.00    -0.417 A  
HETATM   19  C   UNL     1     -12.649  13.495  70.719  1.00  0.00    -0.382 A  
HETATM   20  C   UNL     1     -12.103  12.980  69.522  1.00  0.00    -0.230 A  
HETATM   21  S   UNL     1     -11.737  14.218  68.312  1.00  0.00    -0.343 SA 
HETATM   22  C   UNL     1     -11.213  13.303  66.890  1.00  0.00    -0.305 A  
HETATM   23  C   UNL     1     -11.043  11.907  66.838  1.00  0.00    -0.356 A  
HETATM   24  C   UNL     1     -10.634  11.411  65.575  1.00  0.00    -0.328 A  
HETATM   25  C   UNL     1     -10.328  12.227  64.479  1.00  0.00    -0.311 A  
HETATM   26  C   UNL     1     -10.485  13.589  64.565  1.00  0.00    -0.426 A  
HETATM   27 CL   UNL     1      -9.728  11.520  63.026  1.00  0.00    -0.406 Cl 
HETATM   28  C   UNL     1     -10.945  14.121  65.760  1.00  0.00    -0.301 A  
ENDBRANCH  12  13
ENDBRANCH  11  12
ENDBRANCH   8  11
ENDBRANCH   4   5
ENDBRANCH   2   4
TORSDOF 5
ENDMDL
MODEL       56
REMARK 921   NORMALIZED FREE ENERGY PREDICTED BY IDOCK:   -5.61 KCAL/MOL
REMARK 922        TOTAL FREE ENERGY PREDICTED BY IDOCK:   -7.80 KCAL/MOL
REMARK 923 INTER-LIGAND FREE ENERGY PREDICTED BY IDOCK:   -7.19 KCAL/MOL
REMARK 924 INTRA-LIGAND FREE ENERGY PREDICTED BY IDOCK:   -0.61 KCAL/MOL
REMARK 927      BINDING AFFINITY PREDICTED BY RF-SCORE:    0.00 PKD
ROOT
HETATM    1  O   UNL     1     -13.233  12.423  64.559  1.00  0.00    -0.834 OA 
HETATM    2  C   UNL     1     -12.178  12.633  63.623  1.00  0.00    -0.536 C  
HETATM    3  H   UNL     1     -13.848  13.145  64.497  1.00  0.00     0.000 HD 
ENDROOT
BRANCH   2   4
HETATM    4  C   UNL     1     -11.188  11.470  63.722  1.00  0.00    -0.370 C  
BRANCH   4   5
HETATM    5  N   UNL     1      -9.839  11.823  64.210  1.00  0.00    -0.233 NA 
HETATM    6  C   UNL     1      -9.964  12.608  65.461  1.00  0.00    -0.224 C  
HETATM    7  C   UNL     1     -10.405  11.761  66.681  1.00  0.00    -0.218 C  
HETATM    8  N   UNL     1      -9.527  10.596  66.950  1.00  0.00    -0.163 NA 
HETATM    9  C   UNL     1      -9.414   9.806  65.709  1.00  0.00    -0.240 C  
HETATM   10  C   UNL     1      -8.988  10.639  64.478  1.00  0.00    -0.196 C  
BRANCH   8  11
HETATM   11  C   UNL     1      -8.193  10.979  67.458  1.00  0.00    -0.117 C  
BRANCH  11  12
HETATM   12  C   UNL     1      -8.077  10.580  68.932  1.00  0.00    -0.138 C  
BRANCH  12  13
HETATM   13  C   UNL     1      -9.332  10.275  69.682  1.00  0.00    -0.167 C  
HETATM   14  C   UNL     1      -9.754   9.096  70.221  1.00  0.00    -0.248 C  
HETATM   15  C   UNL     1     -11.124   9.140  70.899  1.00  0.00    -0.356 A  
HETATM   16  C   UNL     1     -11.803  10.350  71.186  1.00  0.00    -0.432 A  
HETATM   17  C   UNL     1     -13.078  10.387  71.765  1.00  0.00    -0.567 A  
HETATM   18  C   UNL     1     -13.708   9.210  72.115  1.00  0.00    -0.531 A  
HETATM   19  C   UNL     1     -13.059   8.006  71.879  1.00  0.00    -0.336 A  
HETATM   20  C   UNL     1     -11.784   7.958  71.272  1.00  0.00    -0.287 A  
HETATM   21  S   UNL     1     -11.164   6.318  71.038  1.00  0.00    -0.304 SA 
HETATM   22  C   UNL     1      -9.526   6.553  70.406  1.00  0.00    -0.162 A  
HETATM   23  C   UNL     1      -8.949   7.794  70.082  1.00  0.00    -0.146 A  
HETATM   24  C   UNL     1      -7.614   7.718  69.613  1.00  0.00    -0.092 A  
HETATM   25  C   UNL     1      -6.933   6.514  69.393  1.00  0.00    -0.071 A  
HETATM   26  C   UNL     1      -7.528   5.316  69.701  1.00  0.00    -0.065 A  
HETATM   27 CL   UNL     1      -5.351   6.539  68.708  1.00  0.00    -0.014 Cl 
HETATM   28  C   UNL     1      -8.813   5.338  70.224  1.00  0.00    -0.145 A  
ENDBRANCH  12  13
ENDBRANCH  11  12
ENDBRANCH   8  11
ENDBRANCH   4   5
ENDBRANCH   2   4
TORSDOF 5
ENDMDL
MODEL       57
REMARK 921   NORMALIZED FREE ENERGY PREDICTED BY IDOCK:   -5.54 KCAL/MOL
REMARK 922        TOTAL FREE ENERGY PREDICTED BY IDOCK:   -7.71 KCAL/MOL
REMARK 923 INTER-LIGAND FREE ENERGY PREDICTED BY IDOCK:   -7.16 KCAL/MOL
REMARK 924 INTRA-LIGAND FREE ENERGY PREDICTED BY IDOCK:   -0.55 KCAL/MOL
REMARK 927      BINDING AFFINITY PREDICTED BY RF-SCORE:    0.00 PKD
ROOT
HETATM    1  O   UNL     1      -7.108  17.147  69.200  1.00  0.00    -0.241 OA 
HETATM    2  C   UNL     1      -8.083  17.608  68.269  1.00  0.00    -0.278 C  
HETATM    3  H   UNL     1      -6.261  17.507  68.964  1.00  0.00     0.000 HD 
ENDROOT
BRANCH   2   4
HETATM    4  C   UNL     1      -9.447  17.029  68.651  1.00  0.00    -0.274 C  
BRANCH   4   5
HETATM    5  N   UNL     1      -9.412  15.755  69.397  1.00  0.00    -0.269 NA 
HETATM    6  C   UNL     1     -10.606  15.671  70.272  1.00  0.00    -0.313 C  
HETATM    7  C   UNL     1     -11.922  15.414  69.498  1.00  0.00    -0.334 C  
HETATM    8  N   UNL     1     -11.889  14.204  68.642  1.00  0.00    -0.339 NA 
HETATM    9  C   UNL     1     -10.709  14.294  67.760  1.00  0.00    -0.251 C  
HETATM   10  C   UNL     1      -9.387  14.564  68.516  1.00  0.00    -0.203 C  
BRANCH   8  11
HETATM   11  C   UNL     1     -11.877  12.945  69.417  1.00  0.00    -0.312 C  
BRANCH  11  12
HETATM   12  C   UNL     1     -12.007  11.757  68.458  1.00  0.00    -0.279 C  
BRANCH  12  13
HETATM   13  C   UNL     1     -10.980  10.676  68.532  1.00  0.00    -0.296 C  
HETATM   14  C   UNL     1     -10.172  10.179  67.551  1.00  0.00    -0.257 C  
HETATM   15  C   UNL     1      -9.251   9.036  67.979  1.00  0.00    -0.143 A  
HETATM   16  C   UNL     1      -9.046   8.677  69.333  1.00  0.00    -0.149 A  
HETATM   17  C   UNL     1      -8.238   7.601  69.721  1.00  0.00    -0.131 A  
HETATM   18  C   UNL     1      -7.572   6.863  68.764  1.00  0.00    -0.105 A  
HETATM   19  C   UNL     1      -7.723   7.205  67.427  1.00  0.00    -0.110 A  
HETATM   20  C   UNL     1      -8.556   8.274  67.026  1.00  0.00    -0.123 A  
HETATM   21  S   UNL     1      -8.624   8.510  65.274  1.00  0.00    -0.135 SA 
HETATM   22  C   UNL     1      -9.602   9.971  65.064  1.00  0.00    -0.297 A  
HETATM   23  C   UNL     1     -10.244  10.676  66.098  1.00  0.00    -0.308 A  
HETATM   24  C   UNL     1     -10.952  11.829  65.674  1.00  0.00    -0.348 A  
HETATM   25  C   UNL     1     -11.094  12.206  64.333  1.00  0.00    -0.333 A  
HETATM   26  C   UNL     1     -10.471  11.487  63.342  1.00  0.00    -0.466 A  
HETATM   27 CL   UNL     1     -12.075  13.563  63.925  1.00  0.00    -0.513 Cl 
HETATM   28  C   UNL     1      -9.712  10.386  63.710  1.00  0.00    -0.351 A  
ENDBRANCH  12  13
ENDBRANCH  11  12
ENDBRANCH   8  11
ENDBRANCH   4   5
ENDBRANCH   2   4
TORSDOF 5
ENDMDL
MODEL       58
REMARK 921   NORMALIZED FREE ENERGY PREDICTED BY IDOCK:   -5.52 KCAL/MOL
REMARK 922        TOTAL FREE ENERGY PREDICTED BY IDOCK:   -7.68 KCAL/MOL
REMARK 923 INTER-LIGAND FREE ENERGY PREDICTED BY IDOCK:   -7.01 KCAL/MOL
REMARK 924 INTRA-LIGAND FREE ENERGY PREDICTED BY IDOCK:   -0.67 KCAL/MOL
REMARK 927      BINDING AFFINITY PREDICTED BY RF-SCORE:    0.00 PKD
ROOT
HETATM    1  O   UNL     1     -10.883   6.746  74.006  1.00  0.00    -0.472 OA 
HETATM    2  C   UNL     1     -11.010   7.610  72.880  1.00  0.00    -0.400 C  
HETATM    3  H   UNL     1     -11.165   7.211  74.785  1.00  0.00     0.000 HD 
ENDROOT
BRANCH   2   4
HETATM    4  C   UNL     1     -10.554   6.861  71.625  1.00  0.00    -0.209 C  
BRANCH   4   5
HETATM    5  N   UNL     1     -11.307   7.169  70.392  1.00  0.00    -0.290 NA 
HETATM    6  C   UNL     1     -10.831   8.461  69.842  1.00  0.00    -0.207 C  
HETATM    7  C   UNL     1      -9.423   8.380  69.203  1.00  0.00    -0.155 C  
HETATM    8  N   UNL     1      -9.304   7.352  68.141  1.00  0.00    -0.136 NA 
HETATM    9  C   UNL     1      -9.763   6.062  68.692  1.00  0.00    -0.127 C  
HETATM   10  C   UNL     1     -11.163   6.129  69.347  1.00  0.00    -0.396 C  
BRANCH   8  11
HETATM   11  C   UNL     1     -10.049   7.698  66.912  1.00  0.00    -0.278 C  
BRANCH  11  12
HETATM   12  C   UNL     1      -9.204   8.645  66.055  1.00  0.00    -0.276 C  
BRANCH  12  13
HETATM   13  C   UNL     1      -9.836   9.905  65.563  1.00  0.00    -0.381 C  
HETATM   14  C   UNL     1      -9.533  11.201  65.864  1.00  0.00    -0.241 C  
HETATM   15  C   UNL     1     -10.420  12.251  65.195  1.00  0.00    -0.320 A  
HETATM   16  C   UNL     1     -11.319  11.945  64.144  1.00  0.00    -0.455 A  
HETATM   17  C   UNL     1     -12.164  12.900  63.564  1.00  0.00    -0.595 A  
HETATM   18  C   UNL     1     -12.112  14.211  63.989  1.00  0.00    -0.382 A  
HETATM   19  C   UNL     1     -11.220  14.557  64.995  1.00  0.00    -0.384 A  
HETATM   20  C   UNL     1     -10.382  13.594  65.603  1.00  0.00    -0.300 A  
HETATM   21  S   UNL     1      -9.351  14.250  66.883  1.00  0.00    -0.266 SA 
HETATM   22  C   UNL     1      -8.325  12.889  67.362  1.00  0.00    -0.190 A  
HETATM   23  C   UNL     1      -8.434  11.575  66.871  1.00  0.00    -0.165 A  
HETATM   24  C   UNL     1      -7.480  10.668  67.398  1.00  0.00    -0.094 A  
HETATM   25  C   UNL     1      -6.555  11.003  68.394  1.00  0.00    -0.058 A  
HETATM   26  C   UNL     1      -6.484  12.290  68.869  1.00  0.00    -0.089 A  
HETATM   27 CL   UNL     1      -5.519   9.788  69.044  1.00  0.00    -0.036 Cl 
HETATM   28  C   UNL     1      -7.353  13.232  68.339  1.00  0.00    -0.112 A  
ENDBRANCH  12  13
ENDBRANCH  11  12
ENDBRANCH   8  11
ENDBRANCH   4   5
ENDBRANCH   2   4
TORSDOF 5
ENDMDL
MODEL       59
REMARK 921   NORMALIZED FREE ENERGY PREDICTED BY IDOCK:   -5.51 KCAL/MOL
REMARK 922        TOTAL FREE ENERGY PREDICTED BY IDOCK:   -7.67 KCAL/MOL
REMARK 923 INTER-LIGAND FREE ENERGY PREDICTED BY IDOCK:   -7.07 KCAL/MOL
REMARK 924 INTRA-LIGAND FREE ENERGY PREDICTED BY IDOCK:   -0.60 KCAL/MOL
REMARK 927      BINDING AFFINITY PREDICTED BY RF-SCORE:    0.00 PKD
ROOT
HETATM    1  O   UNL     1     -13.976  12.861  72.768  1.00  0.00    -0.730 OA 
HETATM    2  C   UNL     1     -13.545  14.104  72.219  1.00  0.00    -0.500 C  
HETATM    3  H   UNL     1     -14.701  13.020  73.360  1.00  0.00     0.000 HD 
ENDROOT
BRANCH   2   4
HETATM    4  C   UNL     1     -12.376  13.847  71.265  1.00  0.00    -0.335 C  
BRANCH   4   5
HETATM    5  N   UNL     1     -12.552  14.359  69.890  1.00  0.00    -0.253 NA 
HETATM    6  C   UNL     1     -11.801  15.629  69.745  1.00  0.00    -0.363 C  
HETATM    7  C   UNL     1     -10.265  15.437  69.694  1.00  0.00    -0.277 C  
HETATM    8  N   UNL     1      -9.812  14.507  68.631  1.00  0.00    -0.230 NA 
HETATM    9  C   UNL     1     -10.548  13.237  68.784  1.00  0.00    -0.201 C  
HETATM   10  C   UNL     1     -12.083  13.412  68.851  1.00  0.00    -0.252 C  
BRANCH   8  11
HETATM   11  C   UNL     1      -9.979  15.056  67.269  1.00  0.00    -0.233 C  
BRANCH  11  12
HETATM   12  C   UNL     1      -8.603  15.361  66.671  1.00  0.00    -0.318 C  
BRANCH  12  13
HETATM   13  C   UNL     1      -8.003  16.704  66.932  1.00  0.00    -0.255 C  
HETATM   14  C   UNL     1      -7.055  17.067  67.843  1.00  0.00    -0.166 C  
HETATM   15  C   UNL     1      -6.696  18.553  67.856  1.00  0.00    -0.218 A  
HETATM   16  C   UNL     1      -7.106  19.454  66.842  1.00  0.00    -0.216 A  
HETATM   17  C   UNL     1      -6.816  20.823  66.879  1.00  0.00    -0.368 A  
HETATM   18  C   UNL     1      -6.067  21.339  67.917  1.00  0.00    -0.368 A  
HETATM   19  C   UNL     1      -5.619  20.481  68.912  1.00  0.00    -0.350 A  
HETATM   20  C   UNL     1      -5.929  19.102  68.896  1.00  0.00    -0.221 A  
HETATM   21  S   UNL     1      -5.284  18.207  70.279  1.00  0.00    -0.261 SA 
HETATM   22  C   UNL     1      -5.689  16.517  69.937  1.00  0.00    -0.201 A  
HETATM   23  C   UNL     1      -6.452  16.069  68.844  1.00  0.00    -0.126 A  
HETATM   24  C   UNL     1      -6.620  14.662  68.781  1.00  0.00    -0.090 A  
HETATM   25  C   UNL     1      -6.154  13.778  69.761  1.00  0.00    -0.127 A  
HETATM   26  C   UNL     1      -5.426  14.246  70.828  1.00  0.00    -0.153 A  
HETATM   27 CL   UNL     1      -6.517  12.097  69.640  1.00  0.00    -0.112 Cl 
HETATM   28  C   UNL     1      -5.179  15.609  70.903  1.00  0.00    -0.145 A  
ENDBRANCH  12  13
ENDBRANCH  11  12
ENDBRANCH   8  11
ENDBRANCH   4   5
ENDBRANCH   2   4
TORSDOF 5
ENDMDL
MODEL       60
REMARK 921   NORMALIZED FREE ENERGY PREDICTED BY IDOCK:   -5.51 KCAL/MOL
REMARK 922        TOTAL FREE ENERGY PREDICTED BY IDOCK:   -7.67 KCAL/MOL
REMARK 923 INTER-LIGAND FREE ENERGY PREDICTED BY IDOCK:   -7.03 KCAL/MOL
REMARK 924 INTRA-LIGAND FREE ENERGY PREDICTED BY IDOCK:   -0.64 KCAL/MOL
REMARK 927      BINDING AFFINITY PREDICTED BY RF-SCORE:    0.00 PKD
ROOT
HETATM    1  O   UNL     1     -12.717  11.898  63.047  1.00  0.00    -0.803 OA 
HETATM    2  C   UNL     1     -11.524  12.624  63.331  1.00  0.00    -0.435 C  
HETATM    3  H   UNL     1     -12.589  11.393  62.252  1.00  0.00     0.000 HD 
ENDROOT
BRANCH   2   4
HETATM    4  C   UNL     1     -11.730  13.436  64.612  1.00  0.00    -0.372 C  
BRANCH   4   5
HETATM    5  N   UNL     1     -12.118  12.656  65.805  1.00  0.00    -0.544 NA 
HETATM    6  C   UNL     1     -11.154  11.545  65.993  1.00  0.00    -0.230 C  
HETATM    7  C   UNL     1      -9.766  12.011  66.499  1.00  0.00    -0.216 C  
HETATM    8  N   UNL     1      -9.818  12.797  67.755  1.00  0.00    -0.214 NA 
HETATM    9  C   UNL     1     -10.765  13.912  67.563  1.00  0.00    -0.267 C  
HETATM   10  C   UNL     1     -12.152  13.467  67.045  1.00  0.00    -0.354 C  
BRANCH   8  11
HETATM   11  C   UNL     1     -10.186  11.986  68.934  1.00  0.00    -0.058 C  
BRANCH  11  12
HETATM   12  C   UNL     1      -9.218  10.805  69.061  1.00  0.00    -0.157 C  
BRANCH  12  13
HETATM   13  C   UNL     1      -9.532   9.741  70.060  1.00  0.00    -0.278 C  
HETATM   14  C   UNL     1      -9.574   8.387  69.899  1.00  0.00    -0.171 C  
HETATM   15  C   UNL     1      -9.968   7.592  71.144  1.00  0.00    -0.188 A  
HETATM   16  C   UNL     1     -10.036   8.168  72.437  1.00  0.00    -0.345 A  
HETATM   17  C   UNL     1     -10.441   7.450  73.569  1.00  0.00    -0.396 A  
HETATM   18  C   UNL     1     -10.759   6.113  73.456  1.00  0.00    -0.263 A  
HETATM   19  C   UNL     1     -10.674   5.505  72.211  1.00  0.00    -0.285 A  
HETATM   20  C   UNL     1     -10.290   6.228  71.059  1.00  0.00    -0.211 A  
HETATM   21  S   UNL     1     -10.282   5.262  69.577  1.00  0.00    -0.260 SA 
HETATM   22  C   UNL     1      -9.638   6.355  68.342  1.00  0.00    -0.125 A  
HETATM   23  C   UNL     1      -9.327   7.713  68.540  1.00  0.00    -0.147 A  
HETATM   24  C   UNL     1      -8.806   8.370  67.397  1.00  0.00    -0.140 A  
HETATM   25  C   UNL     1      -8.687   7.767  66.139  1.00  0.00    -0.156 A  
HETATM   26  C   UNL     1      -9.017   6.444  65.971  1.00  0.00    -0.143 A  
HETATM   27 CL   UNL     1      -8.149   8.698  64.791  1.00  0.00    -0.141 Cl 
HETATM   28  C   UNL     1      -9.472   5.738  67.074  1.00  0.00    -0.131 A  
ENDBRANCH  12  13
ENDBRANCH  11  12
ENDBRANCH   8  11
ENDBRANCH   4   5
ENDBRANCH   2   4
TORSDOF 5
ENDMDL
MODEL       61
REMARK 921   NORMALIZED FREE ENERGY PREDICTED BY IDOCK:   -5.50 KCAL/MOL
REMARK 922        TOTAL FREE ENERGY PREDICTED BY IDOCK:   -7.66 KCAL/MOL
REMARK 923 INTER-LIGAND FREE ENERGY PREDICTED BY IDOCK:   -7.27 KCAL/MOL
REMARK 924 INTRA-LIGAND FREE ENERGY PREDICTED BY IDOCK:   -0.38 KCAL/MOL
REMARK 927      BINDING AFFINITY PREDICTED BY RF-SCORE:    0.00 PKD
ROOT
HETATM    1  O   UNL     1     -12.170   5.101  73.327  1.00  0.00    -0.422 OA 
HETATM    2  C   UNL     1     -10.758   4.903  73.307  1.00  0.00    -0.255 C  
HETATM    3  H   UNL     1     -12.530   4.676  74.097  1.00  0.00     0.000 HD 
ENDROOT
BRANCH   2   4
HETATM    4  C   UNL     1     -10.178   5.589  72.068  1.00  0.00    -0.199 C  
BRANCH   4   5
HETATM    5  N   UNL     1      -9.748   6.989  72.258  1.00  0.00    -0.153 NA 
HETATM    6  C   UNL     1      -9.113   7.476  71.010  1.00  0.00    -0.148 C  
HETATM    7  C   UNL     1     -10.120   7.728  69.861  1.00  0.00    -0.203 C  
HETATM    8  N   UNL     1     -11.216   8.661  70.218  1.00  0.00    -0.226 NA 
HETATM    9  C   UNL     1     -11.859   8.170  71.451  1.00  0.00    -0.295 C  
HETATM   10  C   UNL     1     -10.865   7.899  72.605  1.00  0.00    -0.364 C  
BRANCH   8  11
HETATM   11  C   UNL     1     -10.759  10.058  70.378  1.00  0.00    -0.307 C  
BRANCH  11  12
HETATM   12  C   UNL     1      -9.869  10.442  69.193  1.00  0.00    -0.237 C  
BRANCH  12  13
HETATM   13  C   UNL     1     -10.490  11.185  68.056  1.00  0.00    -0.217 C  
HETATM   14  C   UNL     1     -10.363  10.979  66.713  1.00  0.00    -0.284 C  
HETATM   15  C   UNL     1     -11.125  11.963  65.826  1.00  0.00    -0.367 A  
HETATM   16  C   UNL     1     -12.097  12.862  66.329  1.00  0.00    -0.433 A  
HETATM   17  C   UNL     1     -12.760  13.795  65.522  1.00  0.00    -0.530 A  
HETATM   18  C   UNL     1     -12.503  13.837  64.168  1.00  0.00    -0.293 A  
HETATM   19  C   UNL     1     -11.580  12.949  63.631  1.00  0.00    -0.547 A  
HETATM   20  C   UNL     1     -10.888  12.022  64.443  1.00  0.00    -0.329 A  
HETATM   21  S   UNL     1      -9.737  11.013  63.555  1.00  0.00    -0.373 SA 
HETATM   22  C   UNL     1      -9.130   9.870  64.763  1.00  0.00    -0.237 A  
HETATM   23  C   UNL     1      -9.450   9.887  66.133  1.00  0.00    -0.254 A  
HETATM   24  C   UNL     1      -8.849   8.851  66.891  1.00  0.00    -0.141 A  
HETATM   25  C   UNL     1      -7.937   7.929  66.364  1.00  0.00    -0.102 A  
HETATM   26  C   UNL     1      -7.628   7.948  65.025  1.00  0.00    -0.098 A  
HETATM   27 CL   UNL     1      -7.179   6.783  67.405  1.00  0.00    -0.087 Cl 
HETATM   28  C   UNL     1      -8.238   8.903  64.226  1.00  0.00    -0.169 A  
ENDBRANCH  12  13
ENDBRANCH  11  12
ENDBRANCH   8  11
ENDBRANCH   4   5
ENDBRANCH   2   4
TORSDOF 5
ENDMDL
MODEL       62
REMARK 921   NORMALIZED FREE ENERGY PREDICTED BY IDOCK:   -5.47 KCAL/MOL
REMARK 922        TOTAL FREE ENERGY PREDICTED BY IDOCK:   -7.63 KCAL/MOL
REMARK 923 INTER-LIGAND FREE ENERGY PREDICTED BY IDOCK:   -7.15 KCAL/MOL
REMARK 924 INTRA-LIGAND FREE ENERGY PREDICTED BY IDOCK:   -0.48 KCAL/MOL
REMARK 927      BINDING AFFINITY PREDICTED BY RF-SCORE:    0.00 PKD
ROOT
HETATM    1  O   UNL     1     -11.082   4.062  73.397  1.00  0.00    -0.232 OA 
HETATM    2  C   UNL     1     -10.575   5.357  73.087  1.00  0.00    -0.239 C  
HETATM    3  H   UNL     1     -10.354   3.481  73.582  1.00  0.00     0.000 HD 
ENDROOT
BRANCH   2   4
HETATM    4  C   UNL     1     -11.748   6.293  72.788  1.00  0.00    -0.039 C  
BRANCH   4   5
HETATM    5  N   UNL     1     -11.899   6.693  71.374  1.00  0.00    -0.323 NA 
HETATM    6  C   UNL     1     -12.873   7.808  71.287  1.00  0.00    -0.233 C  
HETATM    7  C   UNL     1     -12.320   9.154  71.819  1.00  0.00    -0.372 C  
HETATM    8  N   UNL     1     -11.061   9.585  71.167  1.00  0.00    -0.352 NA 
HETATM    9  C   UNL     1     -10.086   8.482  71.267  1.00  0.00    -0.222 C  
HETATM   10  C   UNL     1     -10.626   7.127  70.752  1.00  0.00    -0.222 C  
BRANCH   8  11
HETATM   11  C   UNL     1     -11.247  10.002  69.761  1.00  0.00    -0.258 C  
BRANCH  11  12
HETATM   12  C   UNL     1      -9.911  10.491  69.194  1.00  0.00    -0.236 C  
BRANCH  12  13
HETATM   13  C   UNL     1      -9.589  10.172  67.771  1.00  0.00    -0.168 C  
HETATM   14  C   UNL     1      -9.871  10.879  66.639  1.00  0.00    -0.237 C  
HETATM   15  C   UNL     1      -9.416  10.230  65.332  1.00  0.00    -0.287 A  
HETATM   16  C   UNL     1      -8.543   9.115  65.289  1.00  0.00    -0.191 A  
HETATM   17  C   UNL     1      -8.163   8.493  64.093  1.00  0.00    -0.141 A  
HETATM   18  C   UNL     1      -8.614   8.989  62.887  1.00  0.00    -0.180 A  
HETATM   19  C   UNL     1      -9.446  10.101  62.888  1.00  0.00    -0.288 A  
HETATM   20  C   UNL     1      -9.854  10.719  64.091  1.00  0.00    -0.326 A  
HETATM   21  S   UNL     1     -10.939  12.097  63.856  1.00  0.00    -0.447 SA 
HETATM   22  C   UNL     1     -11.172  12.757  65.483  1.00  0.00    -0.294 A  
HETATM   23  C   UNL     1     -10.666  12.194  66.669  1.00  0.00    -0.281 A  
HETATM   24  C   UNL     1     -10.974  12.924  67.845  1.00  0.00    -0.266 A  
HETATM   25  C   UNL     1     -11.790  14.062  67.863  1.00  0.00    -0.376 A  
HETATM   26  C   UNL     1     -12.285  14.579  66.691  1.00  0.00    -0.250 A  
HETATM   27 CL   UNL     1     -12.193  14.802  69.368  1.00  0.00    -0.291 Cl 
HETATM   28  C   UNL     1     -11.960  13.938  65.504  1.00  0.00    -0.397 A  
ENDBRANCH  12  13
ENDBRANCH  11  12
ENDBRANCH   8  11
ENDBRANCH   4   5
ENDBRANCH   2   4
TORSDOF 5
ENDMDL
MODEL       63
REMARK 921   NORMALIZED FREE ENERGY PREDICTED BY IDOCK:   -5.47 KCAL/MOL
REMARK 922        TOTAL FREE ENERGY PREDICTED BY IDOCK:   -7.62 KCAL/MOL
REMARK 923 INTER-LIGAND FREE ENERGY PREDICTED BY IDOCK:   -7.24 KCAL/MOL
REMARK 924 INTRA-LIGAND FREE ENERGY PREDICTED BY IDOCK:   -0.38 KCAL/MOL
REMARK 927      BINDING AFFINITY PREDICTED BY RF-SCORE:    0.00 PKD
ROOT
HETATM    1  O   UNL     1      -8.843  20.226  65.462  1.00  0.00    -0.434 OA 
HETATM    2  C   UNL     1      -9.589  20.343  66.671  1.00  0.00    -0.340 C  
HETATM    3  H   UNL     1      -8.438  21.063  65.268  1.00  0.00     0.000 HD 
ENDROOT
BRANCH   2   4
HETATM    4  C   UNL     1     -10.243  18.995  66.984  1.00  0.00    -0.386 C  
BRANCH   4   5
HETATM    5  N   UNL     1      -9.320  17.845  67.073  1.00  0.00    -0.261 NA 
HETATM    6  C   UNL     1      -9.223  17.408  68.486  1.00  0.00    -0.277 C  
HETATM    7  C   UNL     1     -10.494  16.686  68.998  1.00  0.00    -0.328 C  
HETATM    8  N   UNL     1     -10.891  15.516  68.178  1.00  0.00    -0.285 NA 
HETATM    9  C   UNL     1     -11.003  15.954  66.773  1.00  0.00    -0.151 C  
HETATM   10  C   UNL     1      -9.747  16.689  66.249  1.00  0.00    -0.304 C  
BRANCH   8  11
HETATM   11  C   UNL     1      -9.961  14.374  68.305  1.00  0.00    -0.232 C  
BRANCH  11  12
HETATM   12  C   UNL     1     -10.743  13.127  68.725  1.00  0.00    -0.253 C  
BRANCH  12  13
HETATM   13  C   UNL     1     -10.184  11.789  68.366  1.00  0.00    -0.208 C  
HETATM   14  C   UNL     1     -10.446  10.566  68.909  1.00  0.00    -0.226 C  
HETATM   15  C   UNL     1      -9.659   9.401  68.308  1.00  0.00    -0.156 A  
HETATM   16  C   UNL     1      -8.907   9.514  67.113  1.00  0.00    -0.141 A  
HETATM   17  C   UNL     1      -8.149   8.460  66.589  1.00  0.00    -0.101 A  
HETATM   18  C   UNL     1      -8.145   7.235  67.224  1.00  0.00    -0.112 A  
HETATM   19  C   UNL     1      -8.897   7.076  68.381  1.00  0.00    -0.123 A  
HETATM   20  C   UNL     1      -9.643   8.142  68.930  1.00  0.00    -0.153 A  
HETATM   21  S   UNL     1     -10.496   7.724  70.423  1.00  0.00    -0.225 SA 
HETATM   22  C   UNL     1     -11.447   9.168  70.807  1.00  0.00    -0.282 A  
HETATM   23  C   UNL     1     -11.402  10.383  70.099  1.00  0.00    -0.397 A  
HETATM   24  C   UNL     1     -12.275  11.385  70.593  1.00  0.00    -0.484 A  
HETATM   25  C   UNL     1     -13.061  11.235  71.743  1.00  0.00    -0.422 A  
HETATM   26  C   UNL     1     -13.070  10.043  72.424  1.00  0.00    -0.243 A  
HETATM   27 CL   UNL     1     -13.998  12.563  72.317  1.00  0.00    -0.263 Cl 
HETATM   28  C   UNL     1     -12.281   9.008  71.945  1.00  0.00    -0.451 A  
ENDBRANCH  12  13
ENDBRANCH  11  12
ENDBRANCH   8  11
ENDBRANCH   4   5
ENDBRANCH   2   4
TORSDOF 5
ENDMDL
MODEL       64
REMARK 921   NORMALIZED FREE ENERGY PREDICTED BY IDOCK:   -5.43 KCAL/MOL
REMARK 922        TOTAL FREE ENERGY PREDICTED BY IDOCK:   -7.57 KCAL/MOL
REMARK 923 INTER-LIGAND FREE ENERGY PREDICTED BY IDOCK:   -6.92 KCAL/MOL
REMARK 924 INTRA-LIGAND FREE ENERGY PREDICTED BY IDOCK:   -0.65 KCAL/MOL
REMARK 927      BINDING AFFINITY PREDICTED BY RF-SCORE:    0.00 PKD
ROOT
HETATM    1  O   UNL     1     -13.179   9.902  72.567  1.00  0.00    -0.547 OA 
HETATM    2  C   UNL     1     -13.024  11.059  71.749  1.00  0.00    -0.438 C  
HETATM    3  H   UNL     1     -13.849  10.073  73.219  1.00  0.00     0.000 HD 
ENDROOT
BRANCH   2   4
HETATM    4  C   UNL     1     -11.945  10.783  70.699  1.00  0.00    -0.367 C  
BRANCH   4   5
HETATM    5  N   UNL     1     -12.325  11.083  69.303  1.00  0.00    -0.408 NA 
HETATM    6  C   UNL     1     -12.388  12.553  69.121  1.00  0.00     0.176 C  
HETATM    7  C   UNL     1     -10.998  13.235  69.103  1.00  0.00    -0.161 C  
HETATM    8  N   UNL     1     -10.072  12.682  68.085  1.00  0.00    -0.225 NA 
HETATM    9  C   UNL     1      -9.996  11.220  68.274  1.00  0.00    -0.195 C  
HETATM   10  C   UNL     1     -11.377  10.525  68.309  1.00  0.00    -0.264 C  
BRANCH   8  11
HETATM   11  C   UNL     1     -10.465  13.017  66.700  1.00  0.00    -0.264 C  
BRANCH  11  12
HETATM   12  C   UNL     1      -9.385  13.898  66.065  1.00  0.00    -0.060 C  
BRANCH  12  13
HETATM   13  C   UNL     1      -9.504  15.379  66.214  1.00  0.00    -0.342 C  
HETATM   14  C   UNL     1      -8.688  16.252  66.871  1.00  0.00    -0.237 C  
HETATM   15  C   UNL     1      -9.138  17.713  66.846  1.00  0.00    -0.262 A  
HETATM   16  C   UNL     1     -10.171  18.187  66.002  1.00  0.00    -0.325 A  
HETATM   17  C   UNL     1     -10.614  19.516  66.014  1.00  0.00    -0.589 A  
HETATM   18  C   UNL     1     -10.010  20.433  66.848  1.00  0.00    -0.549 A  
HETATM   19  C   UNL     1      -8.971  20.013  67.668  1.00  0.00    -0.420 A  
HETATM   20  C   UNL     1      -8.536  18.669  67.680  1.00  0.00    -0.267 A  
HETATM   21  S   UNL     1      -7.223  18.352  68.824  1.00  0.00    -0.270 SA 
HETATM   22  C   UNL     1      -6.785  16.661  68.534  1.00  0.00    -0.148 A  
HETATM   23  C   UNL     1      -7.448  15.789  67.653  1.00  0.00    -0.180 A  
HETATM   24  C   UNL     1      -6.892  14.487  67.583  1.00  0.00    -0.203 A  
HETATM   25  C   UNL     1      -5.827  14.051  68.383  1.00  0.00    -0.103 A  
HETATM   26  C   UNL     1      -5.211  14.921  69.249  1.00  0.00    -0.090 A  
HETATM   27 CL   UNL     1      -5.308  12.410  68.296  1.00  0.00    -0.055 Cl 
HETATM   28  C   UNL     1      -5.676  16.226  69.308  1.00  0.00    -0.131 A  
ENDBRANCH  12  13
ENDBRANCH  11  12
ENDBRANCH   8  11
ENDBRANCH   4   5
ENDBRANCH   2   4
TORSDOF 5
ENDMDL
MODEL       65
REMARK 921   NORMALIZED FREE ENERGY PREDICTED BY IDOCK:   -5.38 KCAL/MOL
REMARK 922        TOTAL FREE ENERGY PREDICTED BY IDOCK:   -7.51 KCAL/MOL
REMARK 923 INTER-LIGAND FREE ENERGY PREDICTED BY IDOCK:   -6.88 KCAL/MOL
REMARK 924 INTRA-LIGAND FREE ENERGY PREDICTED BY IDOCK:   -0.63 KCAL/MOL
REMARK 927      BINDING AFFINITY PREDICTED BY RF-SCORE:    0.00 PKD
ROOT
HETATM    1  O   UNL     1     -11.274   7.210  73.581  1.00  0.00    -0.532 OA 
HETATM    2  C   UNL     1     -10.930   5.878  73.210  1.00  0.00    -0.233 C  
HETATM    3  H   UNL     1     -11.084   7.333  74.503  1.00  0.00     0.000 HD 
ENDROOT
BRANCH   2   4
HETATM    4  C   UNL     1     -11.236   5.681  71.723  1.00  0.00    -0.158 C  
BRANCH   4   5
HETATM    5  N   UNL     1     -10.062   5.464  70.854  1.00  0.00    -0.207 NA 
HETATM    6  C   UNL     1     -10.484   5.547  69.436  1.00  0.00    -0.290 C  
HETATM    7  C   UNL     1     -10.814   6.988  68.973  1.00  0.00    -0.182 C  
HETATM    8  N   UNL     1      -9.709   7.954  69.185  1.00  0.00    -0.160 NA 
HETATM    9  C   UNL     1      -9.297   7.882  70.600  1.00  0.00    -0.158 C  
HETATM   10  C   UNL     1      -8.978   6.448  71.083  1.00  0.00    -0.146 C  
BRANCH   8  11
HETATM   11  C   UNL     1      -8.557   7.725  68.286  1.00  0.00    -0.124 C  
BRANCH  11  12
HETATM   12  C   UNL     1      -8.305   8.986  67.454  1.00  0.00    -0.112 C  
BRANCH  12  13
HETATM   13  C   UNL     1      -9.180  10.173  67.687  1.00  0.00    -0.151 C  
HETATM   14  C   UNL     1      -9.823  10.967  66.784  1.00  0.00    -0.231 C  
HETATM   15  C   UNL     1     -10.617  12.129  67.382  1.00  0.00    -0.253 A  
HETATM   16  C   UNL     1     -10.893  12.241  68.767  1.00  0.00    -0.266 A  
HETATM   17  C   UNL     1     -11.581  13.329  69.319  1.00  0.00    -0.370 A  
HETATM   18  C   UNL     1     -12.053  14.331  68.497  1.00  0.00    -0.295 A  
HETATM   19  C   UNL     1     -11.831  14.240  67.130  1.00  0.00    -0.454 A  
HETATM   20  C   UNL     1     -11.115  13.158  66.568  1.00  0.00    -0.294 A  
HETATM   21  S   UNL     1     -10.922  13.264  64.812  1.00  0.00    -0.371 SA 
HETATM   22  C   UNL     1     -10.134  11.742  64.364  1.00  0.00    -0.282 A  
HETATM   23  C   UNL     1      -9.688  10.760  65.266  1.00  0.00    -0.308 A  
HETATM   24  C   UNL     1      -9.106   9.621  64.656  1.00  0.00    -0.286 A  
HETATM   25  C   UNL     1      -8.896   9.497  63.277  1.00  0.00    -0.215 A  
HETATM   26  C   UNL     1      -9.325  10.482  62.421  1.00  0.00    -0.281 A  
HETATM   27 CL   UNL     1      -8.072   8.116  62.657  1.00  0.00    -0.166 Cl 
HETATM   28  C   UNL     1      -9.959  11.590  62.962  1.00  0.00    -0.352 A  
ENDBRANCH  12  13
ENDBRANCH  11  12
ENDBRANCH   8  11
ENDBRANCH   4   5
ENDBRANCH   2   4
TORSDOF 5
ENDMDL
MODEL       66
REMARK 921   NORMALIZED FREE ENERGY PREDICTED BY IDOCK:   -5.36 KCAL/MOL
REMARK 922        TOTAL FREE ENERGY PREDICTED BY IDOCK:   -7.47 KCAL/MOL
REMARK 923 INTER-LIGAND FREE ENERGY PREDICTED BY IDOCK:   -6.89 KCAL/MOL
REMARK 924 INTRA-LIGAND FREE ENERGY PREDICTED BY IDOCK:   -0.59 KCAL/MOL
REMARK 927      BINDING AFFINITY PREDICTED BY RF-SCORE:    0.00 PKD
ROOT
HETATM    1  O   UNL     1      -8.261  19.764  67.183  1.00  0.00    -0.277 OA 
HETATM    2  C   UNL     1      -7.499  19.093  66.182  1.00  0.00    -0.274 C  
HETATM    3  H   UNL     1      -7.942  20.655  67.269  1.00  0.00     0.000 HD 
ENDROOT
BRANCH   2   4
HETATM    4  C   UNL     1      -8.013  17.658  66.044  1.00  0.00    -0.140 C  
BRANCH   4   5
HETATM    5  N   UNL     1      -8.857  17.175  67.155  1.00  0.00    -0.215 NA 
HETATM    6  C   UNL     1     -10.237  16.957  66.657  1.00  0.00    -0.312 C  
HETATM    7  C   UNL     1     -10.375  15.714  65.743  1.00  0.00    -0.365 C  
HETATM    8  N   UNL     1      -9.904  14.455  66.368  1.00  0.00    -0.283 NA 
HETATM    9  C   UNL     1      -8.525  14.666  66.851  1.00  0.00    -0.173 C  
HETATM   10  C   UNL     1      -8.366  15.911  67.754  1.00  0.00    -0.150 C  
BRANCH   8  11
HETATM   11  C   UNL     1     -10.781  13.984  67.461  1.00  0.00    -0.268 C  
BRANCH  11  12
HETATM   12  C   UNL     1     -11.007  12.476  67.318  1.00  0.00    -0.300 C  
BRANCH  12  13
HETATM   13  C   UNL     1     -11.452  11.713  68.521  1.00  0.00    -0.358 C  
HETATM   14  C   UNL     1     -10.741  10.873  69.327  1.00  0.00    -0.271 C  
HETATM   15  C   UNL     1     -11.535  10.228  70.463  1.00  0.00    -0.427 A  
HETATM   16  C   UNL     1     -12.836  10.650  70.830  1.00  0.00    -0.473 A  
HETATM   17  C   UNL     1     -13.580  10.029  71.841  1.00  0.00    -0.354 A  
HETATM   18  C   UNL     1     -13.032   8.982  72.552  1.00  0.00    -0.429 A  
HETATM   19  C   UNL     1     -11.746   8.561  72.243  1.00  0.00    -0.443 A  
HETATM   20  C   UNL     1     -10.998   9.166  71.207  1.00  0.00    -0.330 A  
HETATM   21  S   UNL     1      -9.399   8.448  70.967  1.00  0.00    -0.185 SA 
HETATM   22  C   UNL     1      -8.639   9.469  69.735  1.00  0.00    -0.192 A  
HETATM   23  C   UNL     1      -9.266  10.532  69.060  1.00  0.00    -0.193 A  
HETATM   24  C   UNL     1      -8.437  11.209  68.131  1.00  0.00    -0.138 A  
HETATM   25  C   UNL     1      -7.129  10.817  67.824  1.00  0.00    -0.086 A  
HETATM   26  C   UNL     1      -6.548   9.763  68.486  1.00  0.00    -0.051 A  
HETATM   27 CL   UNL     1      -6.253  11.646  66.591  1.00  0.00    -0.122 Cl 
HETATM   28  C   UNL     1      -7.296   9.105  69.451  1.00  0.00    -0.076 A  
ENDBRANCH  12  13
ENDBRANCH  11  12
ENDBRANCH   8  11
ENDBRANCH   4   5
ENDBRANCH   2   4
TORSDOF 5
ENDMDL
MODEL       67
REMARK 921   NORMALIZED FREE ENERGY PREDICTED BY IDOCK:   -5.35 KCAL/MOL
REMARK 922        TOTAL FREE ENERGY PREDICTED BY IDOCK:   -7.46 KCAL/MOL
REMARK 923 INTER-LIGAND FREE ENERGY PREDICTED BY IDOCK:   -7.01 KCAL/MOL
REMARK 924 INTRA-LIGAND FREE ENERGY PREDICTED BY IDOCK:   -0.45 KCAL/MOL
REMARK 927      BINDING AFFINITY PREDICTED BY RF-SCORE:    0.00 PKD
ROOT
HETATM    1  O   UNL     1      -8.818   3.382  72.928  1.00  0.00    -0.084 OA 
HETATM    2  C   UNL     1     -10.066   3.359  72.239  1.00  0.00    -0.149 C  
HETATM    3  H   UNL     1      -8.795   2.663  73.548  1.00  0.00     0.000 HD 
ENDROOT
BRANCH   2   4
HETATM    4  C   UNL     1     -10.104   4.517  71.240  1.00  0.00    -0.155 C  
BRANCH   4   5
HETATM    5  N   UNL     1     -10.560   5.812  71.783  1.00  0.00    -0.231 NA 
HETATM    6  C   UNL     1      -9.400   6.729  71.894  1.00  0.00    -0.145 C  
HETATM    7  C   UNL     1      -8.892   7.252  70.528  1.00  0.00    -0.153 C  
HETATM    8  N   UNL     1      -9.937   7.922  69.716  1.00  0.00    -0.184 NA 
HETATM    9  C   UNL     1     -11.086   7.005  69.592  1.00  0.00    -0.219 C  
HETATM   10  C   UNL     1     -11.597   6.463  70.947  1.00  0.00    -0.331 C  
BRANCH   8  11
HETATM   11  C   UNL     1     -10.357   9.226  70.273  1.00  0.00    -0.229 C  
BRANCH  11  12
HETATM   12  C   UNL     1     -11.319   9.909  69.296  1.00  0.00    -0.116 C  
BRANCH  12  13
HETATM   13  C   UNL     1     -10.883  10.077  67.878  1.00  0.00    -0.323 C  
HETATM   14  C   UNL     1     -10.816  11.210  67.121  1.00  0.00    -0.326 C  
HETATM   15  C   UNL     1     -10.350  11.006  65.679  1.00  0.00    -0.311 A  
HETATM   16  C   UNL     1      -9.780   9.794  65.218  1.00  0.00    -0.371 A  
HETATM   17  C   UNL     1      -9.396   9.594  63.886  1.00  0.00    -0.096 A  
HETATM   18  C   UNL     1      -9.532  10.616  62.970  1.00  0.00    -0.363 A  
HETATM   19  C   UNL     1     -10.057  11.830  63.393  1.00  0.00    -0.470 A  
HETATM   20  C   UNL     1     -10.471  12.032  64.729  1.00  0.00    -0.294 A  
HETATM   21  S   UNL     1     -11.138  13.642  65.035  1.00  0.00    -0.350 SA 
HETATM   22  C   UNL     1     -11.435  13.671  66.781  1.00  0.00    -0.346 A  
HETATM   23  C   UNL     1     -11.260  12.582  67.654  1.00  0.00    -0.332 A  
HETATM   24  C   UNL     1     -11.546  12.865  69.013  1.00  0.00    -0.372 A  
HETATM   25  C   UNL     1     -12.051  14.091  69.464  1.00  0.00    -0.347 A  
HETATM   26  C   UNL     1     -12.230  15.131  68.585  1.00  0.00    -0.067 A  
HETATM   27 CL   UNL     1     -12.473  14.284  71.124  1.00  0.00    -0.410 Cl 
HETATM   28  C   UNL     1     -11.904  14.926  67.252  1.00  0.00    -0.239 A  
ENDBRANCH  12  13
ENDBRANCH  11  12
ENDBRANCH   8  11
ENDBRANCH   4   5
ENDBRANCH   2   4
TORSDOF 5
ENDMDL
MODEL       68
REMARK 921   NORMALIZED FREE ENERGY PREDICTED BY IDOCK:   -5.34 KCAL/MOL
REMARK 922        TOTAL FREE ENERGY PREDICTED BY IDOCK:   -7.45 KCAL/MOL
REMARK 923 INTER-LIGAND FREE ENERGY PREDICTED BY IDOCK:   -6.84 KCAL/MOL
REMARK 924 INTRA-LIGAND FREE ENERGY PREDICTED BY IDOCK:   -0.61 KCAL/MOL
REMARK 927      BINDING AFFINITY PREDICTED BY RF-SCORE:    0.00 PKD
ROOT
HETATM    1  O   UNL     1     -13.891   8.438  71.149  1.00  0.00    -0.570 OA 
HETATM    2  C   UNL     1     -13.072   7.428  71.732  1.00  0.00    -0.317 C  
HETATM    3  H   UNL     1     -14.501   8.757  71.804  1.00  0.00     0.000 HD 
ENDROOT
BRANCH   2   4
HETATM    4  C   UNL     1     -12.089   6.915  70.677  1.00  0.00    -0.311 C  
BRANCH   4   5
HETATM    5  N   UNL     1     -10.670   7.254  70.910  1.00  0.00    -0.231 NA 
HETATM    6  C   UNL     1      -9.928   7.141  69.631  1.00  0.00    -0.174 C  
HETATM    7  C   UNL     1     -10.245   8.278  68.630  1.00  0.00    -0.204 C  
HETATM    8  N   UNL     1     -10.022   9.638  69.176  1.00  0.00    -0.177 NA 
HETATM    9  C   UNL     1     -10.773   9.757  70.441  1.00  0.00    -0.308 C  
HETATM   10  C   UNL     1     -10.479   8.621  71.448  1.00  0.00    -0.257 C  
BRANCH   8  11
HETATM   11  C   UNL     1      -8.593   9.957  69.377  1.00  0.00    -0.174 C  
BRANCH  11  12
HETATM   12  C   UNL     1      -8.203  11.134  68.478  1.00  0.00    -0.149 C  
BRANCH  12  13
HETATM   13  C   UNL     1      -9.202  11.620  67.479  1.00  0.00    -0.172 C  
HETATM   14  C   UNL     1      -9.366  11.262  66.173  1.00  0.00    -0.230 C  
HETATM   15  C   UNL     1     -10.483  11.995  65.430  1.00  0.00    -0.313 A  
HETATM   16  C   UNL     1     -11.451  12.794  66.087  1.00  0.00    -0.399 A  
HETATM   17  C   UNL     1     -12.445  13.502  65.400  1.00  0.00    -0.540 A  
HETATM   18  C   UNL     1     -12.532  13.406  64.026  1.00  0.00    -0.310 A  
HETATM   19  C   UNL     1     -11.621  12.606  63.350  1.00  0.00    -0.536 A  
HETATM   20  C   UNL     1     -10.599  11.909  64.033  1.00  0.00    -0.374 A  
HETATM   21  S   UNL     1      -9.533  10.979  62.970  1.00  0.00    -0.378 SA 
HETATM   22  C   UNL     1      -8.458  10.109  64.076  1.00  0.00    -0.184 A  
HETATM   23  C   UNL     1      -8.438  10.255  65.474  1.00  0.00    -0.167 A  
HETATM   24  C   UNL     1      -7.497   9.430  66.140  1.00  0.00    -0.096 A  
HETATM   25  C   UNL     1      -6.587   8.596  65.478  1.00  0.00    -0.063 A  
HETATM   26  C   UNL     1      -6.617   8.488  64.109  1.00  0.00    -0.071 A  
HETATM   27 CL   UNL     1      -5.408   7.725  66.385  1.00  0.00    -0.025 Cl 
HETATM   28  C   UNL     1      -7.563   9.227  63.414  1.00  0.00    -0.110 A  
ENDBRANCH  12  13
ENDBRANCH  11  12
ENDBRANCH   8  11
ENDBRANCH   4   5
ENDBRANCH   2   4
TORSDOF 5
ENDMDL
MODEL       69
REMARK 921   NORMALIZED FREE ENERGY PREDICTED BY IDOCK:   -5.34 KCAL/MOL
REMARK 922        TOTAL FREE ENERGY PREDICTED BY IDOCK:   -7.45 KCAL/MOL
REMARK 923 INTER-LIGAND FREE ENERGY PREDICTED BY IDOCK:   -6.63 KCAL/MOL
REMARK 924 INTRA-LIGAND FREE ENERGY PREDICTED BY IDOCK:   -0.82 KCAL/MOL
REMARK 927      BINDING AFFINITY PREDICTED BY RF-SCORE:    0.00 PKD
ROOT
HETATM    1  O   UNL     1     -11.674   4.435  64.849  1.00  0.00    -0.979 OA 
HETATM    2  C   UNL     1     -10.303   4.047  64.827  1.00  0.00    -0.197 C  
HETATM    3  H   UNL     1     -12.033   4.351  63.973  1.00  0.00     0.000 HD 
ENDROOT
BRANCH   2   4
HETATM    4  C   UNL     1      -9.725   4.183  66.238  1.00  0.00    -0.206 C  
BRANCH   4   5
HETATM    5  N   UNL     1      -8.354   4.727  66.314  1.00  0.00    -0.111 NA 
HETATM    6  C   UNL     1      -8.289   5.991  65.542  1.00  0.00    -0.146 C  
HETATM    7  C   UNL     1      -9.014   7.174  66.230  1.00  0.00    -0.155 C  
HETATM    8  N   UNL     1      -8.540   7.448  67.608  1.00  0.00    -0.120 NA 
HETATM    9  C   UNL     1      -8.619   6.195  68.382  1.00  0.00    -0.112 C  
HETATM   10  C   UNL     1      -7.912   4.999  67.702  1.00  0.00    -0.095 C  
BRANCH   8  11
HETATM   11  C   UNL     1      -7.175   8.013  67.651  1.00  0.00    -0.091 C  
BRANCH  11  12
HETATM   12  C   UNL     1      -7.168   9.258  68.543  1.00  0.00    -0.072 C  
BRANCH  12  13
HETATM   13  C   UNL     1      -8.063  10.395  68.174  1.00  0.00    -0.111 C  
HETATM   14  C   UNL     1      -9.221  10.812  68.761  1.00  0.00    -0.192 C  
HETATM   15  C   UNL     1      -9.902  12.006  68.091  1.00  0.00    -0.201 A  
HETATM   16  C   UNL     1      -9.270  12.796  67.100  1.00  0.00    -0.219 A  
HETATM   17  C   UNL     1      -9.911  13.861  66.454  1.00  0.00    -0.303 A  
HETATM   18  C   UNL     1     -11.201  14.200  66.805  1.00  0.00    -0.330 A  
HETATM   19  C   UNL     1     -11.842  13.470  67.797  1.00  0.00    -0.398 A  
HETATM   20  C   UNL     1     -11.211  12.378  68.435  1.00  0.00    -0.273 A  
HETATM   21  S   UNL     1     -12.225  11.572  69.641  1.00  0.00    -0.179 SA 
HETATM   22  C   UNL     1     -11.160  10.360  70.372  1.00  0.00    -0.296 A  
HETATM   23  C   UNL     1      -9.844  10.079  69.961  1.00  0.00    -0.247 A  
HETATM   24  C   UNL     1      -9.191   9.076  70.721  1.00  0.00    -0.299 A  
HETATM   25  C   UNL     1      -9.811   8.346  71.742  1.00  0.00    -0.243 A  
HETATM   26  C   UNL     1     -11.104   8.629  72.109  1.00  0.00    -0.434 A  
HETATM   27 CL   UNL     1      -8.956   7.068  72.521  1.00  0.00    -0.140 Cl 
HETATM   28  C   UNL     1     -11.767   9.646  71.439  1.00  0.00    -0.478 A  
ENDBRANCH  12  13
ENDBRANCH  11  12
ENDBRANCH   8  11
ENDBRANCH   4   5
ENDBRANCH   2   4
TORSDOF 5
ENDMDL
MODEL       70
REMARK 921   NORMALIZED FREE ENERGY PREDICTED BY IDOCK:   -5.33 KCAL/MOL
REMARK 922        TOTAL FREE ENERGY PREDICTED BY IDOCK:   -7.43 KCAL/MOL
REMARK 923 INTER-LIGAND FREE ENERGY PREDICTED BY IDOCK:   -6.92 KCAL/MOL
REMARK 924 INTRA-LIGAND FREE ENERGY PREDICTED BY IDOCK:   -0.51 KCAL/MOL
REMARK 927      BINDING AFFINITY PREDICTED BY RF-SCORE:    0.00 PKD
ROOT
HETATM    1  O   UNL     1      -6.237  20.786  68.742  1.00  0.00    -0.326 OA 
HETATM    2  C   UNL     1      -6.622  20.739  67.371  1.00  0.00    -0.328 C  
HETATM    3  H   UNL     1      -5.303  20.951  68.796  1.00  0.00     0.000 HD 
ENDROOT
BRANCH   2   4
HETATM    4  C   UNL     1      -8.126  20.474  67.285  1.00  0.00    -0.309 C  
BRANCH   4   5
HETATM    5  N   UNL     1      -8.541  19.477  66.276  1.00  0.00    -0.357 NA 
HETATM    6  C   UNL     1      -7.891  18.179  66.581  1.00  0.00    -0.242 C  
HETATM    7  C   UNL     1      -8.484  17.468  67.822  1.00  0.00    -0.225 C  
HETATM    8  N   UNL     1      -9.948  17.247  67.745  1.00  0.00    -0.290 NA 
HETATM    9  C   UNL     1     -10.597  18.541  67.458  1.00  0.00    -0.423 C  
HETATM   10  C   UNL     1     -10.008  19.271  66.229  1.00  0.00    -0.413 C  
BRANCH   8  11
HETATM   11  C   UNL     1     -10.330  16.228  66.744  1.00  0.00    -0.296 C  
BRANCH  11  12
HETATM   12  C   UNL     1     -10.641  14.908  67.455  1.00  0.00    -0.266 C  
BRANCH  12  13
HETATM   13  C   UNL     1      -9.496  14.044  67.871  1.00  0.00    -0.210 C  
HETATM   14  C   UNL     1      -8.975  12.942  67.260  1.00  0.00    -0.208 C  
HETATM   15  C   UNL     1      -7.809  12.277  67.992  1.00  0.00    -0.147 A  
HETATM   16  C   UNL     1      -7.136  12.884  69.080  1.00  0.00    -0.024 A  
HETATM   17  C   UNL     1      -6.098  12.255  69.778  1.00  0.00    -0.141 A  
HETATM   18  C   UNL     1      -5.667  11.003  69.388  1.00  0.00    -0.043 A  
HETATM   19  C   UNL     1      -6.281  10.390  68.305  1.00  0.00    -0.051 A  
HETATM   20  C   UNL     1      -7.346  11.007  67.611  1.00  0.00    -0.094 A  
HETATM   21  S   UNL     1      -7.999  10.031  66.287  1.00  0.00    -0.114 SA 
HETATM   22  C   UNL     1      -9.197  11.082  65.514  1.00  0.00    -0.213 A  
HETATM   23  C   UNL     1      -9.575  12.358  65.970  1.00  0.00    -0.214 A  
HETATM   24  C   UNL     1     -10.542  13.009  65.164  1.00  0.00    -0.327 A  
HETATM   25  C   UNL     1     -11.154  12.417  64.052  1.00  0.00    -0.396 A  
HETATM   26  C   UNL     1     -10.778  11.162  63.641  1.00  0.00    -0.381 A  
HETATM   27 CL   UNL     1     -12.404  13.259  63.214  1.00  0.00    -0.477 Cl 
HETATM   28  C   UNL     1      -9.789  10.506  64.358  1.00  0.00    -0.405 A  
ENDBRANCH  12  13
ENDBRANCH  11  12
ENDBRANCH   8  11
ENDBRANCH   4   5
ENDBRANCH   2   4
TORSDOF 5
ENDMDL
MODEL       71
REMARK 921   NORMALIZED FREE ENERGY PREDICTED BY IDOCK:   -5.32 KCAL/MOL
REMARK 922        TOTAL FREE ENERGY PREDICTED BY IDOCK:   -7.43 KCAL/MOL
REMARK 923 INTER-LIGAND FREE ENERGY PREDICTED BY IDOCK:   -6.74 KCAL/MOL
REMARK 924 INTRA-LIGAND FREE ENERGY PREDICTED BY IDOCK:   -0.69 KCAL/MOL
REMARK 927      BINDING AFFINITY PREDICTED BY RF-SCORE:    0.00 PKD
ROOT
HETATM    1  O   UNL     1      -6.103   9.742  69.612  1.00  0.00    -0.042 OA 
HETATM    2  C   UNL     1      -5.433   9.786  68.355  1.00  0.00    -0.039 C  
HETATM    3  H   UNL     1      -5.512  10.053  70.288  1.00  0.00     0.000 HD 
ENDROOT
BRANCH   2   4
HETATM    4  C   UNL     1      -6.385   9.285  67.266  1.00  0.00    -0.059 C  
BRANCH   4   5
HETATM    5  N   UNL     1      -6.979  10.331  66.410  1.00  0.00    -0.104 NA 
HETATM    6  C   UNL     1      -7.764   9.687  65.329  1.00  0.00    -0.115 C  
HETATM    7  C   UNL     1      -9.088   9.053  65.821  1.00  0.00    -0.219 C  
HETATM    8  N   UNL     1      -9.977   9.999  66.537  1.00  0.00    -0.214 NA 
HETATM    9  C   UNL     1      -9.202  10.630  67.623  1.00  0.00    -0.146 C  
HETATM   10  C   UNL     1      -7.869  11.256  67.151  1.00  0.00    -0.151 C  
BRANCH   8  11
HETATM   11  C   UNL     1     -10.574  11.020  65.651  1.00  0.00    -0.197 C  
BRANCH  11  12
HETATM   12  C   UNL     1     -11.500  11.925  66.469  1.00  0.00    -0.381 C  
BRANCH  12  13
HETATM   13  C   UNL     1     -11.105  13.353  66.656  1.00  0.00    -0.310 C  
HETATM   14  C   UNL     1     -11.130  14.119  67.785  1.00  0.00    -0.292 C  
HETATM   15  C   UNL     1     -10.680  15.568  67.602  1.00  0.00    -0.302 A  
HETATM   16  C   UNL     1     -10.037  16.033  66.429  1.00  0.00    -0.314 A  
HETATM   17  C   UNL     1      -9.666  17.371  66.245  1.00  0.00    -0.276 A  
HETATM   18  C   UNL     1      -9.891  18.291  67.248  1.00  0.00    -0.327 A  
HETATM   19  C   UNL     1     -10.489  17.865  68.427  1.00  0.00    -0.338 A  
HETATM   20  C   UNL     1     -10.890  16.522  68.610  1.00  0.00    -0.345 A  
HETATM   21  S   UNL     1     -11.661  16.213  70.173  1.00  0.00    -0.155 SA 
HETATM   22  C   UNL     1     -11.924  14.462  70.194  1.00  0.00    -0.322 A  
HETATM   23  C   UNL     1     -11.657  13.586  69.127  1.00  0.00    -0.359 A  
HETATM   24  C   UNL     1     -11.936  12.223  69.400  1.00  0.00    -0.318 A  
HETATM   25  C   UNL     1     -12.515  11.770  70.592  1.00  0.00    -0.274 A  
HETATM   26  C   UNL     1     -12.782  12.652  71.610  1.00  0.00    -0.292 A  
HETATM   27 CL   UNL     1     -12.917  10.103  70.768  1.00  0.00    -0.410 Cl 
HETATM   28  C   UNL     1     -12.469  13.989  71.418  1.00  0.00    -0.438 A  
ENDBRANCH  12  13
ENDBRANCH  11  12
ENDBRANCH   8  11
ENDBRANCH   4   5
ENDBRANCH   2   4
TORSDOF 5
ENDMDL
MODEL       72
REMARK 921   NORMALIZED FREE ENERGY PREDICTED BY IDOCK:   -5.32 KCAL/MOL
REMARK 922        TOTAL FREE ENERGY PREDICTED BY IDOCK:   -7.43 KCAL/MOL
REMARK 923 INTER-LIGAND FREE ENERGY PREDICTED BY IDOCK:   -7.04 KCAL/MOL
REMARK 924 INTRA-LIGAND FREE ENERGY PREDICTED BY IDOCK:   -0.38 KCAL/MOL
REMARK 927      BINDING AFFINITY PREDICTED BY RF-SCORE:    0.00 PKD
ROOT
HETATM    1  O   UNL     1     -11.387  14.209  70.703  1.00  0.00    -0.513 OA 
HETATM    2  C   UNL     1     -12.090  14.247  69.464  1.00  0.00    -0.330 C  
HETATM    3  H   UNL     1     -11.928  14.605  71.377  1.00  0.00     0.000 HD 
ENDROOT
BRANCH   2   4
HETATM    4  C   UNL     1     -11.219  13.608  68.379  1.00  0.00    -0.276 C  
BRANCH   4   5
HETATM    5  N   UNL     1     -11.816  12.450  67.684  1.00  0.00    -0.465 NA 
HETATM    6  C   UNL     1     -11.087  12.217  66.414  1.00  0.00    -0.314 C  
HETATM    7  C   UNL     1      -9.670  11.624  66.615  1.00  0.00    -0.202 C  
HETATM    8  N   UNL     1      -9.653  10.364  67.397  1.00  0.00    -0.153 NA 
HETATM    9  C   UNL     1     -10.365  10.599  68.668  1.00  0.00    -0.186 C  
HETATM   10  C   UNL     1     -11.776  11.204  68.486  1.00  0.00    -0.298 C  
BRANCH   8  11
HETATM   11  C   UNL     1     -10.236   9.218  66.667  1.00  0.00    -0.253 C  
BRANCH  11  12
HETATM   12  C   UNL     1     -10.691   8.155  67.670  1.00  0.00    -0.203 C  
BRANCH  12  13
HETATM   13  C   UNL     1     -10.273   6.740  67.437  1.00  0.00    -0.254 C  
HETATM   14  C   UNL     1     -10.219   5.696  68.313  1.00  0.00    -0.239 C  
HETATM   15  C   UNL     1      -9.705   4.379  67.732  1.00  0.00    -0.191 A  
HETATM   16  C   UNL     1      -9.538   4.164  66.342  1.00  0.00    -0.215 A  
HETATM   17  C   UNL     1      -9.023   2.973  65.813  1.00  0.00    -0.144 A  
HETATM   18  C   UNL     1      -8.691   1.934  66.658  1.00  0.00    -0.123 A  
HETATM   19  C   UNL     1      -8.872   2.096  68.025  1.00  0.00    -0.155 A  
HETATM   20  C   UNL     1      -9.366   3.304  68.568  1.00  0.00    -0.174 A  
HETATM   21  S   UNL     1      -9.483   3.299  70.333  1.00  0.00    -0.140 SA 
HETATM   22  C   UNL     1     -10.250   4.845  70.728  1.00  0.00    -0.206 A  
HETATM   23  C   UNL     1     -10.569   5.855  69.802  1.00  0.00    -0.374 A  
HETATM   24  C   UNL     1     -11.199   6.993  70.365  1.00  0.00    -0.339 A  
HETATM   25  C   UNL     1     -11.413   7.165  71.738  1.00  0.00    -0.267 A  
HETATM   26  C   UNL     1     -11.074   6.169  72.622  1.00  0.00    -0.308 A  
HETATM   27 CL   UNL     1     -12.082   8.642  72.322  1.00  0.00    -0.445 Cl 
HETATM   28  C   UNL     1     -10.513   5.007  72.115  1.00  0.00    -0.274 A  
ENDBRANCH  12  13
ENDBRANCH  11  12
ENDBRANCH   8  11
ENDBRANCH   4   5
ENDBRANCH   2   4
TORSDOF 5
ENDMDL
MODEL       73
REMARK 921   NORMALIZED FREE ENERGY PREDICTED BY IDOCK:   -5.31 KCAL/MOL
REMARK 922        TOTAL FREE ENERGY PREDICTED BY IDOCK:   -7.41 KCAL/MOL
REMARK 923 INTER-LIGAND FREE ENERGY PREDICTED BY IDOCK:   -6.74 KCAL/MOL
REMARK 924 INTRA-LIGAND FREE ENERGY PREDICTED BY IDOCK:   -0.67 KCAL/MOL
REMARK 927      BINDING AFFINITY PREDICTED BY RF-SCORE:    0.00 PKD
ROOT
HETATM    1  O   UNL     1     -13.910   7.483  71.971  1.00  0.00    -0.501 OA 
HETATM    2  C   UNL     1     -12.743   6.671  71.868  1.00  0.00    -0.212 C  
HETATM    3  H   UNL     1     -14.431   7.183  72.707  1.00  0.00     0.000 HD 
ENDROOT
BRANCH   2   4
HETATM    4  C   UNL     1     -11.904   7.155  70.683  1.00  0.00    -0.291 C  
BRANCH   4   5
HETATM    5  N   UNL     1     -10.516   7.546  71.004  1.00  0.00    -0.214 NA 
HETATM    6  C   UNL     1      -9.651   7.270  69.832  1.00  0.00    -0.163 C  
HETATM    7  C   UNL     1      -9.871   8.253  68.655  1.00  0.00    -0.176 C  
HETATM    8  N   UNL     1      -9.707   9.679  69.027  1.00  0.00    -0.163 NA 
HETATM    9  C   UNL     1     -10.579   9.959  70.184  1.00  0.00    -0.297 C  
HETATM   10  C   UNL     1     -10.382   8.978  71.362  1.00  0.00    -0.326 C  
BRANCH   8  11
HETATM   11  C   UNL     1      -8.305  10.046  69.319  1.00  0.00    -0.154 C  
BRANCH  11  12
HETATM   12  C   UNL     1      -7.828  11.084  68.299  1.00  0.00    -0.121 C  
BRANCH  12  13
HETATM   13  C   UNL     1      -8.481  12.427  68.301  1.00  0.00    -0.170 C  
HETATM   14  C   UNL     1      -9.281  13.003  67.359  1.00  0.00    -0.208 C  
HETATM   15  C   UNL     1      -9.752  14.422  67.679  1.00  0.00    -0.219 A  
HETATM   16  C   UNL     1      -9.601  15.014  68.957  1.00  0.00    -0.225 A  
HETATM   17  C   UNL     1      -9.992  16.329  69.237  1.00  0.00    -0.259 A  
HETATM   18  C   UNL     1     -10.586  17.093  68.254  1.00  0.00    -0.375 A  
HETATM   19  C   UNL     1     -10.781  16.536  66.997  1.00  0.00    -0.191 A  
HETATM   20  C   UNL     1     -10.366  15.218  66.699  1.00  0.00    -0.280 A  
HETATM   21  S   UNL     1     -10.684  14.728  65.029  1.00  0.00    -0.431 SA 
HETATM   22  C   UNL     1     -10.208  13.023  64.972  1.00  0.00    -0.269 A  
HETATM   23  C   UNL     1      -9.614  12.309  66.028  1.00  0.00    -0.230 A  
HETATM   24  C   UNL     1      -9.345  10.947  65.740  1.00  0.00    -0.232 A  
HETATM   25  C   UNL     1      -9.559  10.359  64.487  1.00  0.00    -0.309 A  
HETATM   26  C   UNL     1     -10.124  11.087  63.468  1.00  0.00    -0.428 A  
HETATM   27 CL   UNL     1      -9.086   8.724  64.217  1.00  0.00     0.181 Cl 
HETATM   28  C   UNL     1     -10.465  12.408  63.718  1.00  0.00    -0.475 A  
ENDBRANCH  12  13
ENDBRANCH  11  12
ENDBRANCH   8  11
ENDBRANCH   4   5
ENDBRANCH   2   4
TORSDOF 5
ENDMDL
MODEL       74
REMARK 921   NORMALIZED FREE ENERGY PREDICTED BY IDOCK:   -5.28 KCAL/MOL
REMARK 922        TOTAL FREE ENERGY PREDICTED BY IDOCK:   -7.37 KCAL/MOL
REMARK 923 INTER-LIGAND FREE ENERGY PREDICTED BY IDOCK:   -6.90 KCAL/MOL
REMARK 924 INTRA-LIGAND FREE ENERGY PREDICTED BY IDOCK:   -0.47 KCAL/MOL
REMARK 927      BINDING AFFINITY PREDICTED BY RF-SCORE:    0.00 PKD
ROOT
HETATM    1  O   UNL     1      -7.837   2.433  70.194  1.00  0.00    -0.043 OA 
HETATM    2  C   UNL     1      -9.236   2.705  70.142  1.00  0.00    -0.132 C  
HETATM    3  H   UNL     1      -7.630   2.044  71.035  1.00  0.00     0.000 HD 
ENDROOT
BRANCH   2   4
HETATM    4  C   UNL     1      -9.570   3.332  68.787  1.00  0.00    -0.037 C  
BRANCH   4   5
HETATM    5  N   UNL     1      -8.938   4.640  68.517  1.00  0.00    -0.105 NA 
HETATM    6  C   UNL     1      -8.916   4.876  67.053  1.00  0.00    -0.109 C  
HETATM    7  C   UNL     1     -10.309   5.199  66.459  1.00  0.00    -0.291 C  
HETATM    8  N   UNL     1     -10.984   6.351  67.104  1.00  0.00    -0.390 NA 
HETATM    9  C   UNL     1     -11.020   6.110  68.560  1.00  0.00    -0.320 C  
HETATM   10  C   UNL     1      -9.639   5.772  69.168  1.00  0.00    -0.135 C  
BRANCH   8  11
HETATM   11  C   UNL     1     -10.343   7.647  66.798  1.00  0.00    -0.273 C  
BRANCH  11  12
HETATM   12  C   UNL     1     -11.007   8.751  67.625  1.00  0.00     0.069 C  
BRANCH  12  13
HETATM   13  C   UNL     1     -10.909  10.158  67.133  1.00  0.00    -0.257 C  
HETATM   14  C   UNL     1     -11.142  11.327  67.796  1.00  0.00    -0.328 C  
HETATM   15  C   UNL     1     -10.974  12.597  66.962  1.00  0.00    -0.300 A  
HETATM   16  C   UNL     1     -10.374  12.602  65.679  1.00  0.00    -0.293 A  
HETATM   17  C   UNL     1     -10.262  13.759  64.897  1.00  0.00    -0.374 A  
HETATM   18  C   UNL     1     -10.715  14.966  65.388  1.00  0.00    -0.391 A  
HETATM   19  C   UNL     1     -11.279  15.006  66.656  1.00  0.00    -0.311 A  
HETATM   20  C   UNL     1     -11.419  13.839  67.441  1.00  0.00    -0.345 A  
HETATM   21  S   UNL     1     -12.195  14.119  69.006  1.00  0.00    -0.129 SA 
HETATM   22  C   UNL     1     -12.113  12.550  69.824  1.00  0.00    -0.224 A  
HETATM   23  C   UNL     1     -11.625  11.360  69.255  1.00  0.00    -0.384 A  
HETATM   24  C   UNL     1     -11.646  10.240  70.124  1.00  0.00    -0.376 A  
HETATM   25  C   UNL     1     -12.187  10.266  71.415  1.00  0.00    -0.383 A  
HETATM   26  C   UNL     1     -12.675  11.439  71.938  1.00  0.00    -0.266 A  
HETATM   27 CL   UNL     1     -12.265   8.814  72.340  1.00  0.00    -0.428 Cl 
HETATM   28  C   UNL     1     -12.619  12.580  71.152  1.00  0.00    -0.349 A  
ENDBRANCH  12  13
ENDBRANCH  11  12
ENDBRANCH   8  11
ENDBRANCH   4   5
ENDBRANCH   2   4
TORSDOF 5
ENDMDL
MODEL       75
REMARK 921   NORMALIZED FREE ENERGY PREDICTED BY IDOCK:   -5.27 KCAL/MOL
REMARK 922        TOTAL FREE ENERGY PREDICTED BY IDOCK:   -7.36 KCAL/MOL
REMARK 923 INTER-LIGAND FREE ENERGY PREDICTED BY IDOCK:   -6.84 KCAL/MOL
REMARK 924 INTRA-LIGAND FREE ENERGY PREDICTED BY IDOCK:   -0.52 KCAL/MOL
REMARK 927      BINDING AFFINITY PREDICTED BY RF-SCORE:    0.00 PKD
ROOT
HETATM    1  O   UNL     1     -12.586  15.557  68.874  1.00  0.00    -0.491 OA 
HETATM    2  C   UNL     1     -11.194  15.742  68.625  1.00  0.00    -0.351 C  
HETATM    3  H   UNL     1     -12.906  16.287  69.391  1.00  0.00     0.000 HD 
ENDROOT
BRANCH   2   4
HETATM    4  C   UNL     1     -10.678  14.567  67.792  1.00  0.00    -0.256 C  
BRANCH   4   5
HETATM    5  N   UNL     1     -10.255  13.379  68.561  1.00  0.00    -0.238 NA 
HETATM    6  C   UNL     1     -11.333  12.362  68.518  1.00  0.00    -0.293 C  
HETATM    7  C   UNL     1     -11.474  11.670  67.139  1.00  0.00    -0.271 C  
HETATM    8  N   UNL     1     -10.223  11.040  66.654  1.00  0.00    -0.226 NA 
HETATM    9  C   UNL     1      -9.152  12.055  66.682  1.00  0.00    -0.205 C  
HETATM   10  C   UNL     1      -9.007  12.766  68.048  1.00  0.00    -0.196 C  
BRANCH   8  11
HETATM   11  C   UNL     1      -9.838   9.841  67.428  1.00  0.00    -0.174 C  
BRANCH  11  12
HETATM   12  C   UNL     1     -10.891   8.747  67.229  1.00  0.00    -0.077 C  
BRANCH  12  13
HETATM   13  C   UNL     1     -10.471   7.325  67.401  1.00  0.00    -0.359 C  
HETATM   14  C   UNL     1     -10.455   6.556  68.528  1.00  0.00    -0.257 C  
HETATM   15  C   UNL     1      -9.926   5.134  68.342  1.00  0.00    -0.214 A  
HETATM   16  C   UNL     1      -9.709   4.553  67.069  1.00  0.00    -0.227 A  
HETATM   17  C   UNL     1      -9.181   3.266  66.900  1.00  0.00    -0.196 A  
HETATM   18  C   UNL     1      -8.885   2.495  68.005  1.00  0.00    -0.163 A  
HETATM   19  C   UNL     1      -9.114   3.019  69.271  1.00  0.00    -0.198 A  
HETATM   20  C   UNL     1      -9.622   4.325  69.450  1.00  0.00    -0.197 A  
HETATM   21  S   UNL     1      -9.803   4.797  71.145  1.00  0.00    -0.198 SA 
HETATM   22  C   UNL     1     -10.577   6.388  71.080  1.00  0.00    -0.236 A  
HETATM   23  C   UNL     1     -10.858   7.109  69.905  1.00  0.00    -0.276 A  
HETATM   24  C   UNL     1     -11.502   8.353  70.117  1.00  0.00     0.012 A  
HETATM   25  C   UNL     1     -11.765   8.888  71.385  1.00  0.00    -0.315 A  
HETATM   26  C   UNL     1     -11.463   8.169  72.516  1.00  0.00    -0.470 A  
HETATM   27 CL   UNL     1     -12.448  10.465  71.524  1.00  0.00    -0.498 Cl 
HETATM   28  C   UNL     1     -10.890   6.916  72.361  1.00  0.00    -0.267 A  
ENDBRANCH  12  13
ENDBRANCH  11  12
ENDBRANCH   8  11
ENDBRANCH   4   5
ENDBRANCH   2   4
TORSDOF 5
ENDMDL
MODEL       76
REMARK 921   NORMALIZED FREE ENERGY PREDICTED BY IDOCK:   -5.27 KCAL/MOL
REMARK 922        TOTAL FREE ENERGY PREDICTED BY IDOCK:   -7.36 KCAL/MOL
REMARK 923 INTER-LIGAND FREE ENERGY PREDICTED BY IDOCK:   -6.90 KCAL/MOL
REMARK 924 INTRA-LIGAND FREE ENERGY PREDICTED BY IDOCK:   -0.46 KCAL/MOL
REMARK 927      BINDING AFFINITY PREDICTED BY RF-SCORE:    0.00 PKD
ROOT
HETATM    1  O   UNL     1      -7.816   6.695  73.892  1.00  0.00    -0.095 OA 
HETATM    2  C   UNL     1      -6.580   6.966  73.235  1.00  0.00    -0.066 C  
HETATM    3  H   UNL     1      -7.684   6.748  74.831  1.00  0.00     0.000 HD 
ENDROOT
BRANCH   2   4
HETATM    4  C   UNL     1      -6.793   6.880  71.722  1.00  0.00    -0.065 C  
BRANCH   4   5
HETATM    5  N   UNL     1      -7.064   8.163  71.043  1.00  0.00    -0.053 NA 
HETATM    6  C   UNL     1      -6.495   8.119  69.675  1.00  0.00    -0.037 C  
HETATM    7  C   UNL     1      -7.286   7.207  68.705  1.00  0.00    -0.096 C  
HETATM    8  N   UNL     1      -8.725   7.551  68.598  1.00  0.00    -0.129 NA 
HETATM    9  C   UNL     1      -9.296   7.580  69.958  1.00  0.00    -0.154 C  
HETATM   10  C   UNL     1      -8.509   8.476  70.943  1.00  0.00    -0.152 C  
BRANCH   8  11
HETATM   11  C   UNL     1      -8.966   8.829  67.894  1.00  0.00    -0.140 C  
BRANCH  11  12
HETATM   12  C   UNL     1     -10.474   9.079  67.799  1.00  0.00    -0.305 C  
BRANCH  12  13
HETATM   13  C   UNL     1     -11.071  10.130  68.676  1.00  0.00    -0.254 C  
HETATM   14  C   UNL     1     -11.424  11.413  68.374  1.00  0.00    -0.367 C  
HETATM   15  C   UNL     1     -11.983  12.228  69.540  1.00  0.00    -0.333 A  
HETATM   16  C   UNL     1     -12.357  11.648  70.777  1.00  0.00    -0.454 A  
HETATM   17  C   UNL     1     -12.826  12.403  71.860  1.00  0.00    -0.315 A  
HETATM   18  C   UNL     1     -12.975  13.769  71.731  1.00  0.00    -0.441 A  
HETATM   19  C   UNL     1     -12.650  14.369  70.523  1.00  0.00    -0.417 A  
HETATM   20  C   UNL     1     -12.152  13.618  69.434  1.00  0.00    -0.314 A  
HETATM   21  S   UNL     1     -11.772  14.593  68.007  1.00  0.00    -0.321 SA 
HETATM   22  C   UNL     1     -11.315  13.408  66.773  1.00  0.00    -0.325 A  
HETATM   23  C   UNL     1     -11.196  12.022  66.981  1.00  0.00    -0.377 A  
HETATM   24  C   UNL     1     -10.836  11.282  65.827  1.00  0.00    -0.257 A  
HETATM   25  C   UNL     1     -10.528  11.866  64.592  1.00  0.00    -0.295 A  
HETATM   26  C   UNL     1     -10.636  13.225  64.423  1.00  0.00    -0.438 A  
HETATM   27 CL   UNL     1      -9.989  10.877  63.287  1.00  0.00    -0.388 Cl 
HETATM   28  C   UNL     1     -11.047  13.989  65.505  1.00  0.00    -0.309 A  
ENDBRANCH  12  13
ENDBRANCH  11  12
ENDBRANCH   8  11
ENDBRANCH   4   5
ENDBRANCH   2   4
TORSDOF 5
ENDMDL
MODEL       77
REMARK 921   NORMALIZED FREE ENERGY PREDICTED BY IDOCK:   -5.22 KCAL/MOL
REMARK 922        TOTAL FREE ENERGY PREDICTED BY IDOCK:   -7.30 KCAL/MOL
REMARK 923 INTER-LIGAND FREE ENERGY PREDICTED BY IDOCK:   -6.83 KCAL/MOL
REMARK 924 INTRA-LIGAND FREE ENERGY PREDICTED BY IDOCK:   -0.46 KCAL/MOL
REMARK 927      BINDING AFFINITY PREDICTED BY RF-SCORE:    0.00 PKD
ROOT
HETATM    1  O   UNL     1      -5.634  10.268  62.413  1.00  0.00    -0.098 OA 
HETATM    2  C   UNL     1      -5.830   8.856  62.369  1.00  0.00    -0.091 C  
HETATM    3  H   UNL     1      -5.433  10.579  61.538  1.00  0.00     0.000 HD 
ENDROOT
BRANCH   2   4
HETATM    4  C   UNL     1      -6.154   8.355  63.778  1.00  0.00    -0.072 C  
BRANCH   4   5
HETATM    5  N   UNL     1      -7.560   7.965  64.007  1.00  0.00    -0.113 NA 
HETATM    6  C   UNL     1      -7.755   7.675  65.448  1.00  0.00    -0.104 C  
HETATM    7  C   UNL     1      -7.749   8.941  66.340  1.00  0.00    -0.095 C  
HETATM    8  N   UNL     1      -8.742   9.965  65.935  1.00  0.00    -0.135 NA 
HETATM    9  C   UNL     1      -8.539  10.266  64.504  1.00  0.00    -0.186 C  
HETATM   10  C   UNL     1      -8.528   9.011  63.601  1.00  0.00    -0.167 C  
BRANCH   8  11
HETATM   11  C   UNL     1     -10.138   9.556  66.197  1.00  0.00    -0.256 C  
BRANCH  11  12
HETATM   12  C   UNL     1     -10.484   9.839  67.662  1.00  0.00    -0.305 C  
BRANCH  12  13
HETATM   13  C   UNL     1     -10.732  11.254  68.068  1.00  0.00    -0.245 C  
HETATM   14  C   UNL     1     -11.305  11.743  69.206  1.00  0.00    -0.348 C  
HETATM   15  C   UNL     1     -11.430  13.265  69.274  1.00  0.00    -0.345 A  
HETATM   16  C   UNL     1     -10.779  14.133  68.363  1.00  0.00    -0.264 A  
HETATM   17  C   UNL     1     -10.931  15.525  68.399  1.00  0.00    -0.297 A  
HETATM   18  C   UNL     1     -11.715  16.105  69.375  1.00  0.00    -0.213 A  
HETATM   19  C   UNL     1     -12.343  15.288  70.306  1.00  0.00    -0.407 A  
HETATM   20  C   UNL     1     -12.215  13.881  70.261  1.00  0.00    -0.358 A  
HETATM   21  S   UNL     1     -13.127  13.040  71.522  1.00  0.00    -0.235 SA 
HETATM   22  C   UNL     1     -12.681  11.337  71.326  1.00  0.00    -0.405 A  
HETATM   23  C   UNL     1     -11.863  10.823  70.303  1.00  0.00    -0.438 A  
HETATM   24  C   UNL     1     -11.638   9.425  70.376  1.00  0.00    -0.241 A  
HETATM   25  C   UNL     1     -12.241   8.588  71.322  1.00  0.00    -0.277 A  
HETATM   26  C   UNL     1     -13.051   9.116  72.298  1.00  0.00    -0.509 A  
HETATM   27 CL   UNL     1     -11.986   6.884  71.244  1.00  0.00    -0.379 Cl 
HETATM   28  C   UNL     1     -13.253  10.488  72.310  1.00  0.00    -0.253 A  
ENDBRANCH  12  13
ENDBRANCH  11  12
ENDBRANCH   8  11
ENDBRANCH   4   5
ENDBRANCH   2   4
TORSDOF 5
ENDMDL
MODEL       78
REMARK 921   NORMALIZED FREE ENERGY PREDICTED BY IDOCK:   -5.21 KCAL/MOL
REMARK 922        TOTAL FREE ENERGY PREDICTED BY IDOCK:   -7.29 KCAL/MOL
REMARK 923 INTER-LIGAND FREE ENERGY PREDICTED BY IDOCK:   -6.64 KCAL/MOL
REMARK 924 INTRA-LIGAND FREE ENERGY PREDICTED BY IDOCK:   -0.65 KCAL/MOL
REMARK 927      BINDING AFFINITY PREDICTED BY RF-SCORE:    0.00 PKD
ROOT
HETATM    1  O   UNL     1     -12.795   7.608  72.575  1.00  0.00    -0.509 OA 
HETATM    2  C   UNL     1     -11.462   7.428  72.104  1.00  0.00    -0.282 C  
HETATM    3  H   UNL     1     -12.913   7.101  73.370  1.00  0.00     0.000 HD 
ENDROOT
BRANCH   2   4
HETATM    4  C   UNL     1     -11.272   8.245  70.824  1.00  0.00    -0.264 C  
BRANCH   4   5
HETATM    5  N   UNL     1     -10.701   9.594  71.009  1.00  0.00    -0.331 NA 
HETATM    6  C   UNL     1     -10.136  10.063  69.720  1.00  0.00    -0.248 C  
HETATM    7  C   UNL     1     -11.213  10.442  68.675  1.00  0.00    -0.248 C  
HETATM    8  N   UNL     1     -12.183  11.457  69.153  1.00  0.00    -0.378 NA 
HETATM    9  C   UNL     1     -12.757  10.984  70.428  1.00  0.00    -0.218 C  
HETATM   10  C   UNL     1     -11.694  10.588  71.479  1.00  0.00     0.123 C  
BRANCH   8  11
HETATM   11  C   UNL     1     -11.587  12.802  69.307  1.00  0.00    -0.314 C  
BRANCH  11  12
HETATM   12  C   UNL     1     -11.418  13.443  67.926  1.00  0.00    -0.350 C  
BRANCH  12  13
HETATM   13  C   UNL     1     -10.938  14.856  67.859  1.00  0.00    -0.288 C  
HETATM   14  C   UNL     1      -9.676  15.334  67.664  1.00  0.00    -0.208 C  
HETATM   15  C   UNL     1      -9.543  16.857  67.686  1.00  0.00    -0.248 A  
HETATM   16  C   UNL     1     -10.659  17.729  67.651  1.00  0.00    -0.385 A  
HETATM   17  C   UNL     1     -10.537  19.123  67.717  1.00  0.00    -0.498 A  
HETATM   18  C   UNL     1      -9.286  19.700  67.785  1.00  0.00    -0.413 A  
HETATM   19  C   UNL     1      -8.166  18.879  67.789  1.00  0.00    -0.296 A  
HETATM   20  C   UNL     1      -8.282  17.471  67.748  1.00  0.00    -0.219 A  
HETATM   21  S   UNL     1      -6.729  16.625  67.796  1.00  0.00    -0.149 SA 
HETATM   22  C   UNL     1      -7.151  14.918  67.589  1.00  0.00    -0.186 A  
HETATM   23  C   UNL     1      -8.459  14.406  67.518  1.00  0.00    -0.202 A  
HETATM   24  C   UNL     1      -8.533  13.003  67.329  1.00  0.00    -0.199 A  
HETATM   25  C   UNL     1      -7.415  12.161  67.305  1.00  0.00    -0.152 A  
HETATM   26  C   UNL     1      -6.150  12.687  67.395  1.00  0.00    -0.142 A  
HETATM   27 CL   UNL     1      -7.632  10.454  67.186  1.00  0.00    -0.095 Cl 
HETATM   28  C   UNL     1      -6.019  14.062  67.517  1.00  0.00     0.063 A  
ENDBRANCH  12  13
ENDBRANCH  11  12
ENDBRANCH   8  11
ENDBRANCH   4   5
ENDBRANCH   2   4
TORSDOF 5
ENDMDL
MODEL       79
REMARK 921   NORMALIZED FREE ENERGY PREDICTED BY IDOCK:   -5.20 KCAL/MOL
REMARK 922        TOTAL FREE ENERGY PREDICTED BY IDOCK:   -7.27 KCAL/MOL
REMARK 923 INTER-LIGAND FREE ENERGY PREDICTED BY IDOCK:   -6.59 KCAL/MOL
REMARK 924 INTRA-LIGAND FREE ENERGY PREDICTED BY IDOCK:   -0.68 KCAL/MOL
REMARK 927      BINDING AFFINITY PREDICTED BY RF-SCORE:    0.00 PKD
ROOT
HETATM    1  O   UNL     1     -13.423  15.665  70.581  1.00  0.00    -0.813 OA 
HETATM    2  C   UNL     1     -12.070  15.262  70.384  1.00  0.00    -0.348 C  
HETATM    3  H   UNL     1     -13.675  15.475  71.477  1.00  0.00     0.000 HD 
ENDROOT
BRANCH   2   4
HETATM    4  C   UNL     1     -11.664  15.568  68.941  1.00  0.00    -0.370 C  
BRANCH   4   5
HETATM    5  N   UNL     1     -10.544  14.765  68.410  1.00  0.00    -0.237 NA 
HETATM    6  C   UNL     1     -10.740  13.346  68.792  1.00  0.00    -0.232 C  
HETATM    7  C   UNL     1     -11.879  12.647  68.008  1.00  0.00    -0.323 C  
HETATM    8  N   UNL     1     -11.722  12.713  66.535  1.00  0.00    -0.386 NA 
HETATM    9  C   UNL     1     -11.541  14.127  66.153  1.00  0.00    -0.370 C  
HETATM   10  C   UNL     1     -10.417  14.844  66.936  1.00  0.00    -0.280 C  
BRANCH   8  11
HETATM   11  C   UNL     1     -10.608  11.882  66.032  1.00  0.00    -0.265 C  
BRANCH  11  12
HETATM   12  C   UNL     1     -10.780  10.444  66.531  1.00  0.00    -0.162 C  
BRANCH  12  13
HETATM   13  C   UNL     1      -9.569   9.574  66.609  1.00  0.00    -0.243 C  
HETATM   14  C   UNL     1      -9.069   8.877  67.670  1.00  0.00    -0.144 C  
HETATM   15  C   UNL     1      -7.776   8.109  67.396  1.00  0.00    -0.102 A  
HETATM   16  C   UNL     1      -7.259   7.909  66.093  1.00  0.00    -0.073 A  
HETATM   17  C   UNL     1      -6.051   7.245  65.848  1.00  0.00    -0.037 A  
HETATM   18  C   UNL     1      -5.330   6.720  66.901  1.00  0.00    -0.017 A  
HETATM   19  C   UNL     1      -5.821   6.868  68.191  1.00  0.00    -0.021 A  
HETATM   20  C   UNL     1      -7.026   7.559  68.448  1.00  0.00    -0.079 A  
HETATM   21  S   UNL     1      -7.443   7.654  70.165  1.00  0.00    -0.086 SA 
HETATM   22  C   UNL     1      -9.036   8.427  70.190  1.00  0.00    -0.142 A  
HETATM   23  C   UNL     1      -9.714   8.929  69.064  1.00  0.00    -0.171 A  
HETATM   24  C   UNL     1     -10.987   9.485  69.343  1.00  0.00    -0.192 A  
HETATM   25  C   UNL     1     -11.512   9.620  70.635  1.00  0.00    -0.306 A  
HETATM   26  C   UNL     1     -10.819   9.137  71.718  1.00  0.00    -0.416 A  
HETATM   27 CL   UNL     1     -13.023  10.419  70.866  1.00  0.00    -0.475 Cl 
HETATM   28  C   UNL     1      -9.595   8.526  71.492  1.00  0.00    -0.297 A  
ENDBRANCH  12  13
ENDBRANCH  11  12
ENDBRANCH   8  11
ENDBRANCH   4   5
ENDBRANCH   2   4
TORSDOF 5
ENDMDL
MODEL       80
REMARK 921   NORMALIZED FREE ENERGY PREDICTED BY IDOCK:   -5.19 KCAL/MOL
REMARK 922        TOTAL FREE ENERGY PREDICTED BY IDOCK:   -7.26 KCAL/MOL
REMARK 923 INTER-LIGAND FREE ENERGY PREDICTED BY IDOCK:   -6.65 KCAL/MOL
REMARK 924 INTRA-LIGAND FREE ENERGY PREDICTED BY IDOCK:   -0.62 KCAL/MOL
REMARK 927      BINDING AFFINITY PREDICTED BY RF-SCORE:    0.00 PKD
ROOT
HETATM    1  O   UNL     1     -10.663  16.018  66.749  1.00  0.00    -0.317 OA 
HETATM    2  C   UNL     1      -9.740  15.052  66.252  1.00  0.00    -0.291 C  
HETATM    3  H   UNL     1     -10.509  16.847  66.310  1.00  0.00     0.000 HD 
ENDROOT
BRANCH   2   4
HETATM    4  C   UNL     1      -9.988  13.718  66.959  1.00  0.00    -0.251 C  
BRANCH   4   5
HETATM    5  N   UNL     1      -9.830  12.513  66.118  1.00  0.00    -0.255 NA 
HETATM    6  C   UNL     1      -8.562  11.833  66.477  1.00  0.00    -0.148 C  
HETATM    7  C   UNL     1      -8.612  11.117  67.849  1.00  0.00    -0.135 C  
HETATM    8  N   UNL     1      -9.715  10.135  67.973  1.00  0.00    -0.142 NA 
HETATM    9  C   UNL     1     -10.980  10.814  67.631  1.00  0.00    -0.306 C  
HETATM   10  C   UNL     1     -10.943  11.547  66.270  1.00  0.00    -0.275 C  
BRANCH   8  11
HETATM   11  C   UNL     1      -9.518   8.930  67.139  1.00  0.00    -0.157 C  
BRANCH  11  12
HETATM   12  C   UNL     1     -10.660   7.942  67.395  1.00  0.00    -0.342 C  
BRANCH  12  13
HETATM   13  C   UNL     1     -10.308   6.543  67.778  1.00  0.00    -0.234 C  
HETATM   14  C   UNL     1     -10.377   5.935  68.998  1.00  0.00    -0.297 C  
HETATM   15  C   UNL     1      -9.900   4.483  69.033  1.00  0.00    -0.202 A  
HETATM   16  C   UNL     1      -9.648   3.726  67.863  1.00  0.00    -0.187 A  
HETATM   17  C   UNL     1      -9.167   2.411  67.897  1.00  0.00    -0.248 A  
HETATM   18  C   UNL     1      -8.955   1.789  69.110  1.00  0.00    -0.145 A  
HETATM   19  C   UNL     1      -9.222   2.488  70.279  1.00  0.00    -0.199 A  
HETATM   20  C   UNL     1      -9.683   3.823  70.253  1.00  0.00    -0.152 A  
HETATM   21  S   UNL     1      -9.924   4.528  71.859  1.00  0.00    -0.191 SA 
HETATM   22  C   UNL     1     -10.626   6.121  71.539  1.00  0.00    -0.239 A  
HETATM   23  C   UNL     1     -10.821   6.684  70.265  1.00  0.00    -0.321 A  
HETATM   24  C   UNL     1     -11.422   7.968  70.273  1.00  0.00    -0.078 A  
HETATM   25  C   UNL     1     -11.722   8.679  71.442  1.00  0.00    -0.297 A  
HETATM   26  C   UNL     1     -11.504   8.112  72.673  1.00  0.00    -0.454 A  
HETATM   27 CL   UNL     1     -12.345  10.283  71.331  1.00  0.00    -0.481 Cl 
HETATM   28  C   UNL     1     -10.976   6.830  72.720  1.00  0.00    -0.303 A  
ENDBRANCH  12  13
ENDBRANCH  11  12
ENDBRANCH   8  11
ENDBRANCH   4   5
ENDBRANCH   2   4
TORSDOF 5
ENDMDL
MODEL       81
REMARK 921   NORMALIZED FREE ENERGY PREDICTED BY IDOCK:   -5.19 KCAL/MOL
REMARK 922        TOTAL FREE ENERGY PREDICTED BY IDOCK:   -7.25 KCAL/MOL
REMARK 923 INTER-LIGAND FREE ENERGY PREDICTED BY IDOCK:   -6.94 KCAL/MOL
REMARK 924 INTRA-LIGAND FREE ENERGY PREDICTED BY IDOCK:   -0.32 KCAL/MOL
REMARK 927      BINDING AFFINITY PREDICTED BY RF-SCORE:    0.00 PKD
ROOT
HETATM    1  O   UNL     1     -12.519  14.907  63.755  1.00  0.00    -1.048 OA 
HETATM    2  C   UNL     1     -11.419  15.667  64.250  1.00  0.00    -0.193 C  
HETATM    3  H   UNL     1     -12.684  15.155  62.853  1.00  0.00     0.000 HD 
ENDROOT
BRANCH   2   4
HETATM    4  C   UNL     1     -11.153  15.267  65.704  1.00  0.00    -0.308 C  
BRANCH   4   5
HETATM    5  N   UNL     1     -11.672  13.943  66.104  1.00  0.00    -0.359 NA 
HETATM    6  C   UNL     1     -10.628  12.918  65.861  1.00  0.00    -0.269 C  
HETATM    7  C   UNL     1      -9.450  12.986  66.863  1.00  0.00    -0.242 C  
HETATM    8  N   UNL     1      -9.865  12.896  68.284  1.00  0.00    -0.229 NA 
HETATM    9  C   UNL     1     -10.893  13.925  68.532  1.00  0.00    -0.259 C  
HETATM   10  C   UNL     1     -12.070  13.881  67.531  1.00  0.00    -0.331 C  
BRANCH   8  11
HETATM   11  C   UNL     1     -10.357  11.554  68.661  1.00  0.00    -0.210 C  
BRANCH  11  12
HETATM   12  C   UNL     1      -9.216  10.754  69.297  1.00  0.00    -0.068 C  
BRANCH  12  13
HETATM   13  C   UNL     1      -8.861   9.433  68.697  1.00  0.00    -0.132 C  
HETATM   14  C   UNL     1      -9.411   8.205  68.917  1.00  0.00    -0.151 C  
HETATM   15  C   UNL     1      -8.768   7.052  68.146  1.00  0.00    -0.127 A  
HETATM   16  C   UNL     1      -7.848   7.252  67.087  1.00  0.00    -0.110 A  
HETATM   17  C   UNL     1      -7.225   6.194  66.412  1.00  0.00    -0.073 A  
HETATM   18  C   UNL     1      -7.530   4.891  66.747  1.00  0.00    -0.087 A  
HETATM   19  C   UNL     1      -8.452   4.656  67.757  1.00  0.00    -0.103 A  
HETATM   20  C   UNL     1      -9.066   5.717  68.461  1.00  0.00    -0.114 A  
HETATM   21  S   UNL     1     -10.181   5.185  69.728  1.00  0.00    -0.263 SA 
HETATM   22  C   UNL     1     -10.902   6.683  70.338  1.00  0.00    -0.266 A  
HETATM   23  C   UNL     1     -10.541   7.982  69.935  1.00  0.00    -0.242 A  
HETATM   24  C   UNL     1     -11.282   9.018  70.557  1.00  0.00    -0.301 A  
HETATM   25  C   UNL     1     -12.235   8.800  71.560  1.00  0.00    -0.327 A  
HETATM   26  C   UNL     1     -12.553   7.521  71.947  1.00  0.00    -0.324 A  
HETATM   27 CL   UNL     1     -12.991  10.145  72.330  1.00  0.00    -0.414 Cl 
HETATM   28  C   UNL     1     -11.902   6.467  71.323  1.00  0.00    -0.385 A  
ENDBRANCH  12  13
ENDBRANCH  11  12
ENDBRANCH   8  11
ENDBRANCH   4   5
ENDBRANCH   2   4
TORSDOF 5
ENDMDL
MODEL       82
REMARK 921   NORMALIZED FREE ENERGY PREDICTED BY IDOCK:   -5.18 KCAL/MOL
REMARK 922        TOTAL FREE ENERGY PREDICTED BY IDOCK:   -7.25 KCAL/MOL
REMARK 923 INTER-LIGAND FREE ENERGY PREDICTED BY IDOCK:   -7.07 KCAL/MOL
REMARK 924 INTRA-LIGAND FREE ENERGY PREDICTED BY IDOCK:   -0.18 KCAL/MOL
REMARK 927      BINDING AFFINITY PREDICTED BY RF-SCORE:    0.00 PKD
ROOT
HETATM    1  O   UNL     1     -10.880  17.603  67.500  1.00  0.00    -0.325 OA 
HETATM    2  C   UNL     1      -9.990  16.630  66.959  1.00  0.00    -0.271 C  
HETATM    3  H   UNL     1     -10.379  18.230  68.010  1.00  0.00     0.000 HD 
ENDROOT
BRANCH   2   4
HETATM    4  C   UNL     1     -10.797  15.622  66.138  1.00  0.00    -0.264 C  
BRANCH   4   5
HETATM    5  N   UNL     1     -10.007  14.567  65.470  1.00  0.00    -0.353 NA 
HETATM    6  C   UNL     1      -9.333  13.740  66.500  1.00  0.00    -0.233 C  
HETATM    7  C   UNL     1     -10.299  12.809  67.274  1.00  0.00    -0.232 C  
HETATM    8  N   UNL     1     -11.092  11.909  66.403  1.00  0.00    -0.297 NA 
HETATM    9  C   UNL     1     -11.775  12.733  65.387  1.00  0.00    -0.387 C  
HETATM   10  C   UNL     1     -10.827  13.678  64.613  1.00  0.00    -0.407 C  
BRANCH   8  11
HETATM   11  C   UNL     1     -10.279  10.850  65.767  1.00  0.00    -0.259 C  
BRANCH  11  12
HETATM   12  C   UNL     1      -9.782   9.877  66.840  1.00  0.00    -0.236 C  
BRANCH  12  13
HETATM   13  C   UNL     1     -10.539   9.798  68.125  1.00  0.00    -0.276 C  
HETATM   14  C   UNL     1     -10.466   8.866  69.118  1.00  0.00    -0.236 C  
HETATM   15  C   UNL     1     -11.423   9.082  70.290  1.00  0.00    -0.147 A  
HETATM   16  C   UNL     1     -12.151  10.283  70.480  1.00  0.00    -0.401 A  
HETATM   17  C   UNL     1     -13.062  10.462  71.528  1.00  0.00    -0.532 A  
HETATM   18  C   UNL     1     -13.251   9.456  72.453  1.00  0.00    -0.483 A  
HETATM   19  C   UNL     1     -12.531   8.277  72.320  1.00  0.00    -0.384 A  
HETATM   20  C   UNL     1     -11.629   8.078  71.250  1.00  0.00    -0.276 A  
HETATM   21  S   UNL     1     -10.848   6.490  71.258  1.00  0.00    -0.259 SA 
HETATM   22  C   UNL     1      -9.688   6.563  69.923  1.00  0.00    -0.164 A  
HETATM   23  C   UNL     1      -9.548   7.636  69.024  1.00  0.00    -0.151 A  
HETATM   24  C   UNL     1      -8.531   7.462  68.052  1.00  0.00    -0.123 A  
HETATM   25  C   UNL     1      -7.776   6.290  67.917  1.00  0.00    -0.103 A  
HETATM   26  C   UNL     1      -7.947   5.250  68.798  1.00  0.00    -0.086 A  
HETATM   27 CL   UNL     1      -6.646   6.145  66.623  1.00  0.00    -0.056 Cl 
HETATM   28  C   UNL     1      -8.886   5.396  69.808  1.00  0.00    -0.124 A  
ENDBRANCH  12  13
ENDBRANCH  11  12
ENDBRANCH   8  11
ENDBRANCH   4   5
ENDBRANCH   2   4
TORSDOF 5
ENDMDL
MODEL       83
REMARK 921   NORMALIZED FREE ENERGY PREDICTED BY IDOCK:   -5.18 KCAL/MOL
REMARK 922        TOTAL FREE ENERGY PREDICTED BY IDOCK:   -7.24 KCAL/MOL
REMARK 923 INTER-LIGAND FREE ENERGY PREDICTED BY IDOCK:   -6.55 KCAL/MOL
REMARK 924 INTRA-LIGAND FREE ENERGY PREDICTED BY IDOCK:   -0.69 KCAL/MOL
REMARK 927      BINDING AFFINITY PREDICTED BY RF-SCORE:    0.00 PKD
ROOT
HETATM    1  O   UNL     1      -6.089  19.296  64.039  1.00  0.00    -0.446 OA 
HETATM    2  C   UNL     1      -6.610  20.044  65.135  1.00  0.00    -0.295 C  
HETATM    3  H   UNL     1      -6.169  19.814  63.246  1.00  0.00     0.000 HD 
ENDROOT
BRANCH   2   4
HETATM    4  C   UNL     1      -6.481  19.209  66.412  1.00  0.00    -0.188 C  
BRANCH   4   5
HETATM    5  N   UNL     1      -7.725  19.044  67.192  1.00  0.00    -0.233 NA 
HETATM    6  C   UNL     1      -8.618  18.094  66.487  1.00  0.00    -0.263 C  
HETATM    7  C   UNL     1      -8.138  16.624  66.559  1.00  0.00    -0.302 C  
HETATM    8  N   UNL     1      -7.932  16.127  67.942  1.00  0.00    -0.140 NA 
HETATM    9  C   UNL     1      -7.030  17.064  68.640  1.00  0.00    -0.202 C  
HETATM   10  C   UNL     1      -7.488  18.539  68.565  1.00  0.00    -0.297 C  
BRANCH   8  11
HETATM   11  C   UNL     1      -9.195  15.951  68.689  1.00  0.00    -0.209 C  
BRANCH  11  12
HETATM   12  C   UNL     1      -9.961  14.755  68.117  1.00  0.00    -0.221 C  
BRANCH  12  13
HETATM   13  C   UNL     1      -9.260  13.438  68.040  1.00  0.00    -0.209 C  
HETATM   14  C   UNL     1      -9.273  12.506  67.045  1.00  0.00    -0.214 C  
HETATM   15  C   UNL     1      -8.455  11.244  67.320  1.00  0.00    -0.144 A  
HETATM   16  C   UNL     1      -7.540  11.138  68.396  1.00  0.00    -0.110 A  
HETATM   17  C   UNL     1      -6.826   9.966  68.673  1.00  0.00    -0.051 A  
HETATM   18  C   UNL     1      -6.972   8.863  67.857  1.00  0.00    -0.078 A  
HETATM   19  C   UNL     1      -7.835   8.939  66.773  1.00  0.00    -0.097 A  
HETATM   20  C   UNL     1      -8.580  10.110  66.501  1.00  0.00    -0.126 A  
HETATM   21  S   UNL     1      -9.640   9.972  65.092  1.00  0.00    -0.304 SA 
HETATM   22  C   UNL     1     -10.329  11.592  64.899  1.00  0.00    -0.283 A  
HETATM   23  C   UNL     1     -10.121  12.674  65.774  1.00  0.00    -0.284 A  
HETATM   24  C   UNL     1     -10.768  13.875  65.389  1.00  0.00    -0.330 A  
HETATM   25  C   UNL     1     -11.622  13.980  64.284  1.00  0.00    -0.329 A  
HETATM   26  C   UNL     1     -11.821  12.901  63.457  1.00  0.00    -0.605 A  
HETATM   27 CL   UNL     1     -12.447  15.462  63.978  1.00  0.00    -0.076 Cl 
HETATM   28  C   UNL     1     -11.160  11.718  63.754  1.00  0.00    -0.513 A  
ENDBRANCH  12  13
ENDBRANCH  11  12
ENDBRANCH   8  11
ENDBRANCH   4   5
ENDBRANCH   2   4
TORSDOF 5
ENDMDL
MODEL       84
REMARK 921   NORMALIZED FREE ENERGY PREDICTED BY IDOCK:   -5.17 KCAL/MOL
REMARK 922        TOTAL FREE ENERGY PREDICTED BY IDOCK:   -7.23 KCAL/MOL
REMARK 923 INTER-LIGAND FREE ENERGY PREDICTED BY IDOCK:   -7.50 KCAL/MOL
REMARK 924 INTRA-LIGAND FREE ENERGY PREDICTED BY IDOCK:    0.26 KCAL/MOL
REMARK 927      BINDING AFFINITY PREDICTED BY RF-SCORE:    0.00 PKD
ROOT
HETATM    1  O   UNL     1      -5.246  17.549  67.865  1.00  0.00    -0.126 OA 
HETATM    2  C   UNL     1      -6.013  17.691  69.058  1.00  0.00    -0.199 C  
HETATM    3  H   UNL     1      -4.370  17.884  68.019  1.00  0.00     0.000 HD 
ENDROOT
BRANCH   2   4
HETATM    4  C   UNL     1      -7.423  17.152  68.810  1.00  0.00    -0.250 C  
BRANCH   4   5
HETATM    5  N   UNL     1      -7.724  15.846  69.431  1.00  0.00    -0.227 NA 
HETATM    6  C   UNL     1      -9.088  15.422  69.034  1.00  0.00    -0.233 C  
HETATM    7  C   UNL     1      -9.190  14.970  67.557  1.00  0.00    -0.188 C  
HETATM    8  N   UNL     1      -8.244  13.887  67.195  1.00  0.00    -0.150 NA 
HETATM    9  C   UNL     1      -6.884  14.314  67.575  1.00  0.00    -0.135 C  
HETATM   10  C   UNL     1      -6.768  14.782  69.044  1.00  0.00    -0.105 C  
BRANCH   8  11
HETATM   11  C   UNL     1      -8.584  12.588  67.813  1.00  0.00    -0.178 C  
BRANCH  11  12
HETATM   12  C   UNL     1     -10.088  12.337  67.674  1.00  0.00    -0.204 C  
BRANCH  12  13
HETATM   13  C   UNL     1     -10.997  12.901  68.716  1.00  0.00    -0.292 C  
HETATM   14  C   UNL     1     -11.542  12.297  69.811  1.00  0.00    -0.314 C  
HETATM   15  C   UNL     1     -12.464  13.178  70.653  1.00  0.00    -0.363 A  
HETATM   16  C   UNL     1     -12.558  14.581  70.482  1.00  0.00    -0.413 A  
HETATM   17  C   UNL     1     -13.437  15.380  71.224  1.00  0.00    -0.598 A  
HETATM   18  C   UNL     1     -14.232  14.808  72.195  1.00  0.00    -0.608 A  
HETATM   19  C   UNL     1     -14.145  13.440  72.414  1.00  0.00    -0.517 A  
HETATM   20  C   UNL     1     -13.279  12.622  71.653  1.00  0.00    -0.298 A  
HETATM   21  S   UNL     1     -13.356  10.907  72.079  1.00  0.00    -0.103 SA 
HETATM   22  C   UNL     1     -12.093  10.151  71.094  1.00  0.00    -0.388 A  
HETATM   23  C   UNL     1     -11.313  10.810  70.127  1.00  0.00    -0.390 A  
HETATM   24  C   UNL     1     -10.353   9.987  69.485  1.00  0.00    -0.256 A  
HETATM   25  C   UNL     1     -10.231   8.611  69.711  1.00  0.00    -0.206 A  
HETATM   26  C   UNL     1     -11.020   7.991  70.649  1.00  0.00    -0.250 A  
HETATM   27 CL   UNL     1      -9.105   7.688  68.788  1.00  0.00    -0.140 Cl 
HETATM   28  C   UNL     1     -11.933   8.763  71.351  1.00  0.00    -0.367 A  
ENDBRANCH  12  13
ENDBRANCH  11  12
ENDBRANCH   8  11
ENDBRANCH   4   5
ENDBRANCH   2   4
TORSDOF 5
ENDMDL
MODEL       85
REMARK 921   NORMALIZED FREE ENERGY PREDICTED BY IDOCK:   -5.17 KCAL/MOL
REMARK 922        TOTAL FREE ENERGY PREDICTED BY IDOCK:   -7.23 KCAL/MOL
REMARK 923 INTER-LIGAND FREE ENERGY PREDICTED BY IDOCK:   -6.72 KCAL/MOL
REMARK 924 INTRA-LIGAND FREE ENERGY PREDICTED BY IDOCK:   -0.52 KCAL/MOL
REMARK 927      BINDING AFFINITY PREDICTED BY RF-SCORE:    0.00 PKD
ROOT
HETATM    1  O   UNL     1     -10.512  19.754  67.251  1.00  0.00    -0.426 OA 
HETATM    2  C   UNL     1      -9.810  18.735  67.958  1.00  0.00    -0.343 C  
HETATM    3  H   UNL     1      -9.909  20.459  67.047  1.00  0.00     0.000 HD 
ENDROOT
BRANCH   2   4
HETATM    4  C   UNL     1     -10.781  17.599  68.287  1.00  0.00    -0.280 C  
BRANCH   4   5
HETATM    5  N   UNL     1     -10.206  16.469  69.044  1.00  0.00    -0.267 NA 
HETATM    6  C   UNL     1     -10.968  16.289  70.303  1.00  0.00    -0.308 C  
HETATM    7  C   UNL     1     -12.381  15.692  70.091  1.00  0.00    -0.336 C  
HETATM    8  N   UNL     1     -12.383  14.401  69.361  1.00  0.00    -0.256 NA 
HETATM    9  C   UNL     1     -11.637  14.582  68.100  1.00  0.00    -0.331 C  
HETATM   10  C   UNL     1     -10.229  15.191  68.293  1.00  0.00    -0.223 C  
BRANCH   8  11
HETATM   11  C   UNL     1     -11.823  13.285  70.152  1.00  0.00    -0.263 C  
BRANCH  11  12
HETATM   12  C   UNL     1     -11.623  12.068  69.244  1.00  0.00    -0.380 C  
BRANCH  12  13
HETATM   13  C   UNL     1     -11.607  10.714  69.873  1.00  0.00    -0.396 C  
HETATM   14  C   UNL     1     -10.580   9.823  69.986  1.00  0.00    -0.320 C  
HETATM   15  C   UNL     1     -10.933   8.502  70.669  1.00  0.00    -0.268 A  
HETATM   16  C   UNL     1     -12.147   8.296  71.369  1.00  0.00    -0.331 A  
HETATM   17  C   UNL     1     -12.489   7.071  71.955  1.00  0.00    -0.346 A  
HETATM   18  C   UNL     1     -11.606   6.012  71.896  1.00  0.00    -0.312 A  
HETATM   19  C   UNL     1     -10.392   6.185  71.247  1.00  0.00    -0.264 A  
HETATM   20  C   UNL     1     -10.050   7.410  70.631  1.00  0.00    -0.190 A  
HETATM   21  S   UNL     1      -8.470   7.395  69.835  1.00  0.00    -0.140 SA 
HETATM   22  C   UNL     1      -8.238   9.062  69.284  1.00  0.00    -0.117 A  
HETATM   23  C   UNL     1      -9.189  10.094  69.391  1.00  0.00    -0.229 A  
HETATM   24  C   UNL     1      -8.755  11.348  68.893  1.00  0.00    -0.012 A  
HETATM   25  C   UNL     1      -7.523  11.550  68.258  1.00  0.00    -0.103 A  
HETATM   26  C   UNL     1      -6.622  10.519  68.151  1.00  0.00    -0.063 A  
HETATM   27 CL   UNL     1      -7.149  13.093  67.587  1.00  0.00    -0.147 Cl 
HETATM   28  C   UNL     1      -6.972   9.285  68.681  1.00  0.00    -0.062 A  
ENDBRANCH  12  13
ENDBRANCH  11  12
ENDBRANCH   8  11
ENDBRANCH   4   5
ENDBRANCH   2   4
TORSDOF 5
ENDMDL
MODEL       86
REMARK 921   NORMALIZED FREE ENERGY PREDICTED BY IDOCK:   -5.16 KCAL/MOL
REMARK 922        TOTAL FREE ENERGY PREDICTED BY IDOCK:   -7.22 KCAL/MOL
REMARK 923 INTER-LIGAND FREE ENERGY PREDICTED BY IDOCK:   -6.73 KCAL/MOL
REMARK 924 INTRA-LIGAND FREE ENERGY PREDICTED BY IDOCK:   -0.49 KCAL/MOL
REMARK 927      BINDING AFFINITY PREDICTED BY RF-SCORE:    0.00 PKD
ROOT
HETATM    1  O   UNL     1      -5.936   3.904  74.055  1.00  0.00    -0.010 OA 
HETATM    2  C   UNL     1      -7.115   4.323  73.373  1.00  0.00    -0.065 C  
HETATM    3  H   UNL     1      -5.714   3.023  73.775  1.00  0.00     0.000 HD 
ENDROOT
BRANCH   2   4
HETATM    4  C   UNL     1      -7.472   5.742  73.823  1.00  0.00    -0.093 C  
BRANCH   4   5
HETATM    5  N   UNL     1      -8.901   5.978  74.108  1.00  0.00    -0.122 NA 
HETATM    6  C   UNL     1      -9.100   7.410  74.441  1.00  0.00    -0.109 C  
HETATM    7  C   UNL     1      -8.980   8.351  73.217  1.00  0.00    -0.124 C  
HETATM    8  N   UNL     1      -9.894   8.003  72.102  1.00  0.00    -0.202 NA 
HETATM    9  C   UNL     1      -9.686   6.583  71.760  1.00  0.00    -0.158 C  
HETATM   10  C   UNL     1      -9.788   5.630  72.973  1.00  0.00    -0.167 C  
BRANCH   8  11
HETATM   11  C   UNL     1     -11.314   8.272  72.409  1.00  0.00    -0.388 C  
BRANCH  11  12
HETATM   12  C   UNL     1     -11.902   9.189  71.332  1.00  0.00    -0.415 C  
BRANCH  12  13
HETATM   13  C   UNL     1     -11.269   9.186  69.980  1.00  0.00    -0.168 C  
HETATM   14  C   UNL     1     -11.082  10.218  69.108  1.00  0.00    -0.283 C  
HETATM   15  C   UNL     1     -10.419   9.842  67.782  1.00  0.00    -0.292 A  
HETATM   16  C   UNL     1      -9.804   8.587  67.557  1.00  0.00    -0.231 A  
HETATM   17  C   UNL     1      -9.237   8.227  66.327  1.00  0.00    -0.258 A  
HETATM   18  C   UNL     1      -9.232   9.130  65.284  1.00  0.00    -0.243 A  
HETATM   19  C   UNL     1      -9.796  10.383  65.477  1.00  0.00    -0.332 A  
HETATM   20  C   UNL     1     -10.393  10.744  66.706  1.00  0.00    -0.243 A  
HETATM   21  S   UNL     1     -11.078  12.375  66.717  1.00  0.00    -0.302 SA 
HETATM   22  C   UNL     1     -11.619  12.615  68.386  1.00  0.00    -0.328 A  
HETATM   23  C   UNL     1     -11.581  11.642  69.401  1.00  0.00    -0.392 A  
HETATM   24  C   UNL     1     -12.053  12.087  70.662  1.00  0.00    -0.369 A  
HETATM   25  C   UNL     1     -12.603  13.355  70.884  1.00  0.00    -0.327 A  
HETATM   26  C   UNL     1     -12.644  14.280  69.868  1.00  0.00    -0.214 A  
HETATM   27 CL   UNL     1     -13.253  13.748  72.431  1.00  0.00    -0.556 Cl 
HETATM   28  C   UNL     1     -12.135  13.916  68.631  1.00  0.00    -0.337 A  
ENDBRANCH  12  13
ENDBRANCH  11  12
ENDBRANCH   8  11
ENDBRANCH   4   5
ENDBRANCH   2   4
TORSDOF 5
ENDMDL
MODEL       87
REMARK 921   NORMALIZED FREE ENERGY PREDICTED BY IDOCK:   -5.15 KCAL/MOL
REMARK 922        TOTAL FREE ENERGY PREDICTED BY IDOCK:   -7.21 KCAL/MOL
REMARK 923 INTER-LIGAND FREE ENERGY PREDICTED BY IDOCK:   -6.53 KCAL/MOL
REMARK 924 INTRA-LIGAND FREE ENERGY PREDICTED BY IDOCK:   -0.68 KCAL/MOL
REMARK 927      BINDING AFFINITY PREDICTED BY RF-SCORE:    0.00 PKD
ROOT
HETATM    1  O   UNL     1     -12.789   6.586  72.208  1.00  0.00    -0.553 OA 
HETATM    2  C   UNL     1     -11.396   6.371  72.420  1.00  0.00    -0.287 C  
HETATM    3  H   UNL     1     -13.250   6.454  73.029  1.00  0.00     0.000 HD 
ENDROOT
BRANCH   2   4
HETATM    4  C   UNL     1     -10.654   6.584  71.098  1.00  0.00    -0.229 C  
BRANCH   4   5
HETATM    5  N   UNL     1      -9.874   7.835  71.001  1.00  0.00    -0.174 NA 
HETATM    6  C   UNL     1      -9.123   7.841  69.723  1.00  0.00    -0.147 C  
HETATM    7  C   UNL     1     -10.019   8.064  68.480  1.00  0.00    -0.192 C  
HETATM    8  N   UNL     1     -10.835   9.301  68.543  1.00  0.00    -0.131 NA 
HETATM    9  C   UNL     1     -11.595   9.289  69.807  1.00  0.00     0.188 C  
HETATM   10  C   UNL     1     -10.717   9.053  71.058  1.00  0.00    -0.269 C  
BRANCH   8  11
HETATM   11  C   UNL     1     -10.031  10.535  68.419  1.00  0.00    -0.164 C  
BRANCH  11  12
HETATM   12  C   UNL     1     -10.895  11.646  67.817  1.00  0.00    -0.264 C  
BRANCH  12  13
HETATM   13  C   UNL     1     -10.286  13.000  67.648  1.00  0.00    -0.216 C  
HETATM   14  C   UNL     1     -10.404  14.107  68.435  1.00  0.00    -0.249 C  
HETATM   15  C   UNL     1      -9.660  15.346  67.937  1.00  0.00    -0.206 A  
HETATM   16  C   UNL     1      -8.709  15.304  66.888  1.00  0.00    -0.288 A  
HETATM   17  C   UNL     1      -8.063  16.448  66.402  1.00  0.00    -0.357 A  
HETATM   18  C   UNL     1      -8.317  17.677  66.976  1.00  0.00    -0.239 A  
HETATM   19  C   UNL     1      -9.219  17.753  68.028  1.00  0.00    -0.273 A  
HETATM   20  C   UNL     1      -9.895  16.608  68.507  1.00  0.00    -0.252 A  
HETATM   21  S   UNL     1     -11.021  16.943  69.830  1.00  0.00     0.252 SA 
HETATM   22  C   UNL     1     -11.609  15.348  70.324  1.00  0.00    -0.320 A  
HETATM   23  C   UNL     1     -11.293  14.132  69.689  1.00  0.00    -0.289 A  
HETATM   24  C   UNL     1     -11.874  12.987  70.289  1.00  0.00    -0.294 A  
HETATM   25  C   UNL     1     -12.766  13.040  71.367  1.00  0.00    -0.281 A  
HETATM   26  C   UNL     1     -13.071  14.244  71.955  1.00  0.00    -0.445 A  
HETATM   27 CL   UNL     1     -13.503  11.591  71.941  1.00  0.00    -0.393 Cl 
HETATM   28  C   UNL     1     -12.478  15.390  71.446  1.00  0.00    -0.457 A  
ENDBRANCH  12  13
ENDBRANCH  11  12
ENDBRANCH   8  11
ENDBRANCH   4   5
ENDBRANCH   2   4
TORSDOF 5
ENDMDL
MODEL       88
REMARK 921   NORMALIZED FREE ENERGY PREDICTED BY IDOCK:   -5.15 KCAL/MOL
REMARK 922        TOTAL FREE ENERGY PREDICTED BY IDOCK:   -7.21 KCAL/MOL
REMARK 923 INTER-LIGAND FREE ENERGY PREDICTED BY IDOCK:   -7.17 KCAL/MOL
REMARK 924 INTRA-LIGAND FREE ENERGY PREDICTED BY IDOCK:   -0.04 KCAL/MOL
REMARK 927      BINDING AFFINITY PREDICTED BY RF-SCORE:    0.00 PKD
ROOT
HETATM    1  O   UNL     1      -6.492  10.006  63.369  1.00  0.00    -0.125 OA 
HETATM    2  C   UNL     1      -7.303   8.850  63.567  1.00  0.00    -0.098 C  
HETATM    3  H   UNL     1      -6.932  10.592  62.765  1.00  0.00     0.000 HD 
ENDROOT
BRANCH   2   4
HETATM    4  C   UNL     1      -6.594   7.906  64.540  1.00  0.00    -0.056 C  
BRANCH   4   5
HETATM    5  N   UNL     1      -7.404   7.447  65.687  1.00  0.00    -0.072 NA 
HETATM    6  C   UNL     1      -6.892   8.079  66.927  1.00  0.00    -0.073 C  
HETATM    7  C   UNL     1      -7.225   9.588  67.035  1.00  0.00    -0.087 C  
HETATM    8  N   UNL     1      -8.671   9.892  66.923  1.00  0.00    -0.128 NA 
HETATM    9  C   UNL     1      -9.179   9.277  65.681  1.00  0.00    -0.231 C  
HETATM   10  C   UNL     1      -8.843   7.773  65.551  1.00  0.00    -0.010 C  
BRANCH   8  11
HETATM   11  C   UNL     1      -9.452   9.443  68.095  1.00  0.00    -0.133 C  
BRANCH  11  12
HETATM   12  C   UNL     1     -10.918   9.848  67.915  1.00  0.00    -0.281 C  
BRANCH  12  13
HETATM   13  C   UNL     1     -11.521  10.777  68.917  1.00  0.00    -0.362 C  
HETATM   14  C   UNL     1     -11.792  12.110  68.810  1.00  0.00    -0.356 C  
HETATM   15  C   UNL     1     -12.386  12.759  70.060  1.00  0.00    -0.182 A  
HETATM   16  C   UNL     1     -12.869  12.010  71.162  1.00  0.00    -0.331 A  
HETATM   17  C   UNL     1     -13.371  12.607  72.325  1.00  0.00    -0.527 A  
HETATM   18  C   UNL     1     -13.445  13.981  72.414  1.00  0.00    -0.639 A  
HETATM   19  C   UNL     1     -13.013  14.748  71.341  1.00  0.00    -0.413 A  
HETATM   20  C   UNL     1     -12.480  14.155  70.174  1.00  0.00    -0.331 A  
HETATM   21  S   UNL     1     -11.961  15.322  68.951  1.00  0.00    -0.211 SA 
HETATM   22  C   UNL     1     -11.482  14.326  67.567  1.00  0.00    -0.345 A  
HETATM   23  C   UNL     1     -11.443  12.920  67.551  1.00  0.00    -0.386 A  
HETATM   24  C   UNL     1     -11.043  12.356  66.314  1.00  0.00    -0.344 A  
HETATM   25  C   UNL     1     -10.628  13.113  65.211  1.00  0.00    -0.313 A  
HETATM   26  C   UNL     1     -10.659  14.485  65.262  1.00  0.00    -0.400 A  
HETATM   27 CL   UNL     1     -10.051  12.316  63.795  1.00  0.00    -0.404 Cl 
HETATM   28  C   UNL     1     -11.103  15.087  66.429  1.00  0.00    -0.329 A  
ENDBRANCH  12  13
ENDBRANCH  11  12
ENDBRANCH   8  11
ENDBRANCH   4   5
ENDBRANCH   2   4
TORSDOF 5
ENDMDL
MODEL       89
REMARK 921   NORMALIZED FREE ENERGY PREDICTED BY IDOCK:   -5.14 KCAL/MOL
REMARK 922        TOTAL FREE ENERGY PREDICTED BY IDOCK:   -7.20 KCAL/MOL
REMARK 923 INTER-LIGAND FREE ENERGY PREDICTED BY IDOCK:   -7.14 KCAL/MOL
REMARK 924 INTRA-LIGAND FREE ENERGY PREDICTED BY IDOCK:   -0.06 KCAL/MOL
REMARK 927      BINDING AFFINITY PREDICTED BY RF-SCORE:    0.00 PKD
ROOT
HETATM    1  O   UNL     1      -8.506  17.982  68.735  1.00  0.00    -0.285 OA 
HETATM    2  C   UNL     1      -9.913  18.071  68.524  1.00  0.00    -0.390 C  
HETATM    3  H   UNL     1      -8.086  18.736  68.339  1.00  0.00     0.000 HD 
ENDROOT
BRANCH   2   4
HETATM    4  C   UNL     1     -10.589  16.855  69.163  1.00  0.00    -0.330 C  
BRANCH   4   5
HETATM    5  N   UNL     1     -11.433  16.048  68.259  1.00  0.00    -0.334 NA 
HETATM    6  C   UNL     1     -10.756  15.922  66.945  1.00  0.00    -0.289 C  
HETATM    7  C   UNL     1      -9.528  14.980  66.971  1.00  0.00    -0.229 C  
HETATM    8  N   UNL     1      -9.828  13.616  67.469  1.00  0.00    -0.223 NA 
HETATM    9  C   UNL     1     -10.488  13.739  68.783  1.00  0.00    -0.214 C  
HETATM   10  C   UNL     1     -11.709  14.688  68.779  1.00  0.00    -0.324 C  
BRANCH   8  11
HETATM   11  C   UNL     1     -10.654  12.824  66.533  1.00  0.00    -0.254 C  
BRANCH  11  12
HETATM   12  C   UNL     1     -10.468  11.333  66.827  1.00  0.00    -0.291 C  
BRANCH  12  13
HETATM   13  C   UNL     1     -11.006  10.794  68.111  1.00  0.00    -0.308 C  
HETATM   14  C   UNL     1     -10.883   9.545  68.647  1.00  0.00    -0.177 C  
HETATM   15  C   UNL     1     -11.600   9.332  69.980  1.00  0.00    -0.005 A  
HETATM   16  C   UNL     1     -12.135  10.397  70.746  1.00  0.00    -0.463 A  
HETATM   17  C   UNL     1     -12.831  10.196  71.945  1.00  0.00    -0.526 A  
HETATM   18  C   UNL     1     -12.985   8.919  72.443  1.00  0.00    -0.467 A  
HETATM   19  C   UNL     1     -12.447   7.852  71.737  1.00  0.00    -0.352 A  
HETATM   20  C   UNL     1     -11.765   8.044  70.514  1.00  0.00    -0.071 A  
HETATM   21  S   UNL     1     -11.192   6.544  69.771  1.00  0.00    -0.396 SA 
HETATM   22  C   UNL     1     -10.269   7.077  68.357  1.00  0.00    -0.179 A  
HETATM   23  C   UNL     1     -10.150   8.408  67.918  1.00  0.00    -0.254 A  
HETATM   24  C   UNL     1      -9.336   8.579  66.769  1.00  0.00    -0.232 A  
HETATM   25  C   UNL     1      -8.762   7.518  66.057  1.00  0.00    -0.158 A  
HETATM   26  C   UNL     1      -8.911   6.226  66.499  1.00  0.00    -0.150 A  
HETATM   27 CL   UNL     1      -7.888   7.836  64.606  1.00  0.00    -0.124 Cl 
HETATM   28  C   UNL     1      -9.645   6.010  67.656  1.00  0.00    -0.113 A  
ENDBRANCH  12  13
ENDBRANCH  11  12
ENDBRANCH   8  11
ENDBRANCH   4   5
ENDBRANCH   2   4
TORSDOF 5
ENDMDL
MODEL       90
REMARK 921   NORMALIZED FREE ENERGY PREDICTED BY IDOCK:   -5.11 KCAL/MOL
REMARK 922        TOTAL FREE ENERGY PREDICTED BY IDOCK:   -7.15 KCAL/MOL
REMARK 923 INTER-LIGAND FREE ENERGY PREDICTED BY IDOCK:   -6.59 KCAL/MOL
REMARK 924 INTRA-LIGAND FREE ENERGY PREDICTED BY IDOCK:   -0.56 KCAL/MOL
REMARK 927      BINDING AFFINITY PREDICTED BY RF-SCORE:    0.00 PKD
ROOT
HETATM    1  O   UNL     1      -8.058   5.279  63.892  1.00  0.00    -0.106 OA 
HETATM    2  C   UNL     1      -7.602   5.244  65.242  1.00  0.00    -0.082 C  
HETATM    3  H   UNL     1      -8.649   4.550  63.746  1.00  0.00     0.000 HD 
ENDROOT
BRANCH   2   4
HETATM    4  C   UNL     1      -6.649   6.419  65.475  1.00  0.00    -0.043 C  
BRANCH   4   5
HETATM    5  N   UNL     1      -6.932   7.239  66.671  1.00  0.00    -0.071 NA 
HETATM    6  C   UNL     1      -6.344   8.587  66.486  1.00  0.00    -0.058 C  
HETATM    7  C   UNL     1      -7.108   9.459  65.459  1.00  0.00    -0.087 C  
HETATM    8  N   UNL     1      -8.550   9.620  65.764  1.00  0.00    -0.132 NA 
HETATM    9  C   UNL     1      -9.140   8.278  65.934  1.00  0.00    -0.149 C  
HETATM   10  C   UNL     1      -8.380   7.389  66.946  1.00  0.00    -0.122 C  
BRANCH   8  11
HETATM   11  C   UNL     1      -8.801  10.464  66.951  1.00  0.00    -0.133 C  
BRANCH  11  12
HETATM   12  C   UNL     1     -10.305  10.501  67.240  1.00  0.00    -0.275 C  
BRANCH  12  13
HETATM   13  C   UNL     1     -10.841  11.637  68.047  1.00  0.00    -0.259 C  
HETATM   14  C   UNL     1     -11.378  11.631  69.301  1.00  0.00    -0.353 C  
HETATM   15  C   UNL     1     -11.861  12.989  69.812  1.00  0.00    -0.381 A  
HETATM   16  C   UNL     1     -11.552  14.210  69.165  1.00  0.00    -0.349 A  
HETATM   17  C   UNL     1     -12.033  15.448  69.608  1.00  0.00    -0.366 A  
HETATM   18  C   UNL     1     -12.814  15.515  70.743  1.00  0.00    -0.513 A  
HETATM   19  C   UNL     1     -13.112  14.342  71.423  1.00  0.00    -0.416 A  
HETATM   20  C   UNL     1     -12.652  13.086  70.968  1.00  0.00    -0.299 A  
HETATM   21  S   UNL     1     -13.178  11.726  71.970  1.00  0.00    -0.141 SA 
HETATM   22  C   UNL     1     -12.357  10.321  71.271  1.00  0.00    -0.403 A  
HETATM   23  C   UNL     1     -11.564  10.337  70.109  1.00  0.00    -0.376 A  
HETATM   24  C   UNL     1     -10.999   9.083  69.765  1.00  0.00    -0.177 A  
HETATM   25  C   UNL     1     -11.265   7.893  70.454  1.00  0.00    -0.234 A  
HETATM   26  C   UNL     1     -12.060   7.905  71.574  1.00  0.00    -0.336 A  
HETATM   27 CL   UNL     1     -10.615   6.405  69.875  1.00  0.00    -0.270 Cl 
HETATM   28  C   UNL     1     -12.586   9.118  71.991  1.00  0.00    -0.463 A  
ENDBRANCH  12  13
ENDBRANCH  11  12
ENDBRANCH   8  11
ENDBRANCH   4   5
ENDBRANCH   2   4
TORSDOF 5
ENDMDL
MODEL       91
REMARK 921   NORMALIZED FREE ENERGY PREDICTED BY IDOCK:   -5.11 KCAL/MOL
REMARK 922        TOTAL FREE ENERGY PREDICTED BY IDOCK:   -7.15 KCAL/MOL
REMARK 923 INTER-LIGAND FREE ENERGY PREDICTED BY IDOCK:   -6.58 KCAL/MOL
REMARK 924 INTRA-LIGAND FREE ENERGY PREDICTED BY IDOCK:   -0.57 KCAL/MOL
REMARK 927      BINDING AFFINITY PREDICTED BY RF-SCORE:    0.00 PKD
ROOT
HETATM    1  O   UNL     1     -11.587   8.055  72.266  1.00  0.00    -0.316 OA 
HETATM    2  C   UNL     1     -11.451   6.896  71.448  1.00  0.00    -0.282 C  
HETATM    3  H   UNL     1     -11.828   7.786  73.145  1.00  0.00     0.000 HD 
ENDROOT
BRANCH   2   4
HETATM    4  C   UNL     1     -11.062   7.329  70.032  1.00  0.00    -0.240 C  
BRANCH   4   5
HETATM    5  N   UNL     1      -9.813   8.110  69.926  1.00  0.00    -0.184 NA 
HETATM    6  C   UNL     1      -8.904   7.444  68.963  1.00  0.00    -0.132 C  
HETATM    7  C   UNL     1      -9.356   7.584  67.488  1.00  0.00    -0.138 C  
HETATM    8  N   UNL     1      -9.547   8.988  67.050  1.00  0.00    -0.165 NA 
HETATM    9  C   UNL     1     -10.463   9.648  68.000  1.00  0.00    -0.229 C  
HETATM   10  C   UNL     1     -10.035   9.506  69.478  1.00  0.00    -0.194 C  
BRANCH   8  11
HETATM   11  C   UNL     1      -8.278   9.737  66.931  1.00  0.00    -0.117 C  
BRANCH  11  12
HETATM   12  C   UNL     1      -8.545  11.086  66.257  1.00  0.00    -0.167 C  
BRANCH  12  13
HETATM   13  C   UNL     1      -8.155  12.329  66.987  1.00  0.00    -0.141 C  
HETATM   14  C   UNL     1      -8.725  13.568  66.954  1.00  0.00    -0.158 C  
HETATM   15  C   UNL     1      -8.036  14.627  67.814  1.00  0.00    -0.160 A  
HETATM   16  C   UNL     1      -7.045  14.314  68.777  1.00  0.00    -0.105 A  
HETATM   17  C   UNL     1      -6.383  15.290  69.531  1.00  0.00    -0.145 A  
HETATM   18  C   UNL     1      -6.716  16.620  69.378  1.00  0.00    -0.218 A  
HETATM   19  C   UNL     1      -7.705  16.964  68.467  1.00  0.00    -0.227 A  
HETATM   20  C   UNL     1      -8.361  15.987  67.683  1.00  0.00    -0.151 A  
HETATM   21  S   UNL     1      -9.561  16.653  66.567  1.00  0.00    -0.289 SA 
HETATM   22  C   UNL     1     -10.315  15.230  65.830  1.00  0.00    -0.329 A  
HETATM   23  C   UNL     1      -9.923  13.897  66.048  1.00  0.00    -0.325 A  
HETATM   24  C   UNL     1     -10.699  12.934  65.356  1.00  0.00    -0.307 A  
HETATM   25  C   UNL     1     -11.719  13.259  64.453  1.00  0.00    -0.388 A  
HETATM   26  C   UNL     1     -12.068  14.571  64.246  1.00  0.00    -0.448 A  
HETATM   27 CL   UNL     1     -12.520  12.007  63.579  1.00  0.00    -0.682 Cl 
HETATM   28  C   UNL     1     -11.381  15.551  64.948  1.00  0.00    -0.339 A  
ENDBRANCH  12  13
ENDBRANCH  11  12
ENDBRANCH   8  11
ENDBRANCH   4   5
ENDBRANCH   2   4
TORSDOF 5
ENDMDL
MODEL       92
REMARK 921   NORMALIZED FREE ENERGY PREDICTED BY IDOCK:   -5.10 KCAL/MOL
REMARK 922        TOTAL FREE ENERGY PREDICTED BY IDOCK:   -7.14 KCAL/MOL
REMARK 923 INTER-LIGAND FREE ENERGY PREDICTED BY IDOCK:   -6.41 KCAL/MOL
REMARK 924 INTRA-LIGAND FREE ENERGY PREDICTED BY IDOCK:   -0.73 KCAL/MOL
REMARK 927      BINDING AFFINITY PREDICTED BY RF-SCORE:    0.00 PKD
ROOT
HETATM    1  O   UNL     1     -13.036  12.210  63.684  1.00  0.00    -0.780 OA 
HETATM    2  C   UNL     1     -11.809  12.899  63.453  1.00  0.00    -0.507 C  
HETATM    3  H   UNL     1     -13.657  12.449  63.006  1.00  0.00     0.000 HD 
ENDROOT
BRANCH   2   4
HETATM    4  C   UNL     1     -10.810  12.514  64.546  1.00  0.00    -0.328 C  
BRANCH   4   5
HETATM    5  N   UNL     1     -11.033  11.197  65.178  1.00  0.00    -0.150 NA 
HETATM    6  C   UNL     1     -10.043  10.230  64.646  1.00  0.00    -0.247 C  
HETATM    7  C   UNL     1      -8.605  10.464  65.171  1.00  0.00    -0.180 C  
HETATM    8  N   UNL     1      -8.500  10.469  66.650  1.00  0.00    -0.127 NA 
HETATM    9  C   UNL     1      -9.474  11.443  67.180  1.00  0.00    -0.175 C  
HETATM   10  C   UNL     1     -10.913  11.231  66.655  1.00  0.00    -0.268 C  
BRANCH   8  11
HETATM   11  C   UNL     1      -8.705   9.134  67.252  1.00  0.00    -0.117 C  
BRANCH  11  12
HETATM   12  C   UNL     1      -8.508   9.223  68.768  1.00  0.00    -0.129 C  
BRANCH  12  13
HETATM   13  C   UNL     1      -8.532   7.956  69.558  1.00  0.00    -0.133 C  
HETATM   14  C   UNL     1      -9.440   7.528  70.481  1.00  0.00    -0.164 C  
HETATM   15  C   UNL     1      -9.130   6.177  71.126  1.00  0.00    -0.151 A  
HETATM   16  C   UNL     1      -8.129   5.301  70.637  1.00  0.00    -0.108 A  
HETATM   17  C   UNL     1      -7.815   4.085  71.256  1.00  0.00    -0.070 A  
HETATM   18  C   UNL     1      -8.519   3.680  72.371  1.00  0.00    -0.089 A  
HETATM   19  C   UNL     1      -9.530   4.497  72.861  1.00  0.00    -0.153 A  
HETATM   20  C   UNL     1      -9.836   5.737  72.257  1.00  0.00    -0.161 A  
HETATM   21  S   UNL     1     -11.134   6.626  73.066  1.00  0.00    -0.155 SA 
HETATM   22  C   UNL     1     -11.405   8.043  72.040  1.00  0.00    -0.302 A  
HETATM   23  C   UNL     1     -10.645   8.383  70.906  1.00  0.00    -0.243 A  
HETATM   24  C   UNL     1     -11.074   9.558  70.240  1.00  0.00    -0.317 A  
HETATM   25  C   UNL     1     -12.108  10.382  70.703  1.00  0.00    -0.348 A  
HETATM   26  C   UNL     1     -12.821  10.034  71.824  1.00  0.00    -0.546 A  
HETATM   27 CL   UNL     1     -12.468  11.851  69.875  1.00  0.00    -0.118 Cl 
HETATM   28  C   UNL     1     -12.482   8.859  72.477  1.00  0.00    -0.344 A  
ENDBRANCH  12  13
ENDBRANCH  11  12
ENDBRANCH   8  11
ENDBRANCH   4   5
ENDBRANCH   2   4
TORSDOF 5
ENDMDL
MODEL       93
REMARK 921   NORMALIZED FREE ENERGY PREDICTED BY IDOCK:   -5.08 KCAL/MOL
REMARK 922        TOTAL FREE ENERGY PREDICTED BY IDOCK:   -7.12 KCAL/MOL
REMARK 923 INTER-LIGAND FREE ENERGY PREDICTED BY IDOCK:   -6.64 KCAL/MOL
REMARK 924 INTRA-LIGAND FREE ENERGY PREDICTED BY IDOCK:   -0.47 KCAL/MOL
REMARK 927      BINDING AFFINITY PREDICTED BY RF-SCORE:    0.00 PKD
ROOT
HETATM    1  O   UNL     1     -12.009  16.398  63.719  1.00  0.00    -1.363 OA 
HETATM    2  C   UNL     1     -11.019  16.220  64.730  1.00  0.00    -0.272 C  
HETATM    3  H   UNL     1     -12.174  17.327  63.609  1.00  0.00     0.000 HD 
ENDROOT
BRANCH   2   4
HETATM    4  C   UNL     1     -10.754  14.724  64.907  1.00  0.00    -0.417 C  
BRANCH   4   5
HETATM    5  N   UNL     1     -11.250  14.135  66.168  1.00  0.00    -0.320 NA 
HETATM    6  C   UNL     1     -12.163  13.010  65.852  1.00  0.00    -0.432 C  
HETATM    7  C   UNL     1     -11.433  11.754  65.315  1.00  0.00    -0.186 C  
HETATM    8  N   UNL     1     -10.369  11.248  66.216  1.00  0.00    -0.239 NA 
HETATM    9  C   UNL     1      -9.451  12.363  66.519  1.00  0.00    -0.242 C  
HETATM   10  C   UNL     1     -10.165  13.631  67.043  1.00  0.00    -0.250 C  
BRANCH   8  11
HETATM   11  C   UNL     1     -10.897  10.644  67.457  1.00  0.00    -0.296 C  
BRANCH  11  12
HETATM   12  C   UNL     1      -9.877   9.644  68.010  1.00  0.00    -0.175 C  
BRANCH  12  13
HETATM   13  C   UNL     1      -9.503   8.475  67.160  1.00  0.00    -0.208 C  
HETATM   14  C   UNL     1      -9.497   7.146  67.468  1.00  0.00    -0.144 C  
HETATM   15  C   UNL     1      -9.018   6.218  66.351  1.00  0.00    -0.159 A  
HETATM   16  C   UNL     1      -8.839   6.650  65.014  1.00  0.00     0.277 A  
HETATM   17  C   UNL     1      -8.356   5.811  64.002  1.00  0.00    -0.036 A  
HETATM   18  C   UNL     1      -8.071   4.491  64.283  1.00  0.00    -0.100 A  
HETATM   19  C   UNL     1      -8.266   4.022  65.575  1.00  0.00    -0.105 A  
HETATM   20  C   UNL     1      -8.727   4.869  66.607  1.00  0.00    -0.108 A  
HETATM   21  S   UNL     1      -8.870   4.069  68.179  1.00  0.00    -0.116 SA 
HETATM   22  C   UNL     1      -9.591   5.295  69.234  1.00  0.00    -0.155 A  
HETATM   23  C   UNL     1      -9.863   6.625  68.867  1.00  0.00    -0.143 A  
HETATM   24  C   UNL     1     -10.462   7.407  69.887  1.00  0.00    -0.238 A  
HETATM   25  C   UNL     1     -10.691   6.945  71.189  1.00  0.00    -0.225 A  
HETATM   26  C   UNL     1     -10.398   5.645  71.524  1.00  0.00    -0.279 A  
HETATM   27 CL   UNL     1     -11.319   8.020  72.381  1.00  0.00    -0.412 Cl 
HETATM   28  C   UNL     1      -9.869   4.820  70.543  1.00  0.00    -0.301 A  
ENDBRANCH  12  13
ENDBRANCH  11  12
ENDBRANCH   8  11
ENDBRANCH   4   5
ENDBRANCH   2   4
TORSDOF 5
ENDMDL
MODEL       94
REMARK 921   NORMALIZED FREE ENERGY PREDICTED BY IDOCK:   -5.08 KCAL/MOL
REMARK 922        TOTAL FREE ENERGY PREDICTED BY IDOCK:   -7.12 KCAL/MOL
REMARK 923 INTER-LIGAND FREE ENERGY PREDICTED BY IDOCK:   -6.58 KCAL/MOL
REMARK 924 INTRA-LIGAND FREE ENERGY PREDICTED BY IDOCK:   -0.54 KCAL/MOL
REMARK 927      BINDING AFFINITY PREDICTED BY RF-SCORE:    0.00 PKD
ROOT
HETATM    1  O   UNL     1     -12.654   5.274  72.890  1.00  0.00    -0.395 OA 
HETATM    2  C   UNL     1     -11.276   5.535  73.145  1.00  0.00    -0.267 C  
HETATM    3  H   UNL     1     -13.074   5.011  73.701  1.00  0.00     0.000 HD 
ENDROOT
BRANCH   2   4
HETATM    4  C   UNL     1     -10.600   5.958  71.839  1.00  0.00    -0.231 C  
BRANCH   4   5
HETATM    5  N   UNL     1      -9.828   7.215  71.900  1.00  0.00    -0.160 NA 
HETATM    6  C   UNL     1      -9.105   7.404  70.619  1.00  0.00    -0.156 C  
HETATM    7  C   UNL     1     -10.031   7.793  69.440  1.00  0.00    -0.188 C  
HETATM    8  N   UNL     1     -10.849   9.003  69.693  1.00  0.00    -0.218 NA 
HETATM    9  C   UNL     1     -11.580   8.810  70.961  1.00  0.00    -0.288 C  
HETATM   10  C   UNL     1     -10.673   8.407  72.146  1.00  0.00    -0.337 C  
BRANCH   8  11
HETATM   11  C   UNL     1     -10.052  10.248  69.726  1.00  0.00    -0.203 C  
BRANCH  11  12
HETATM   12  C   UNL     1      -9.371  10.451  68.369  1.00  0.00    -0.150 C  
BRANCH  12  13
HETATM   13  C   UNL     1      -9.987  11.414  67.408  1.00  0.00    -0.207 C  
HETATM   14  C   UNL     1      -9.548  12.642  67.010  1.00  0.00    -0.219 C  
HETATM   15  C   UNL     1     -10.459  13.375  66.025  1.00  0.00    -0.294 A  
HETATM   16  C   UNL     1     -11.542  12.747  65.364  1.00  0.00    -0.393 A  
HETATM   17  C   UNL     1     -12.404  13.431  64.497  1.00  0.00    -0.415 A  
HETATM   18  C   UNL     1     -12.189  14.767  64.229  1.00  0.00    -0.402 A  
HETATM   19  C   UNL     1     -11.117  15.410  64.833  1.00  0.00    -0.435 A  
HETATM   20  C   UNL     1     -10.258  14.733  65.729  1.00  0.00    -0.338 A  
HETATM   21  S   UNL     1      -8.982  15.754  66.406  1.00  0.00    -0.352 SA 
HETATM   22  C   UNL     1      -7.988  14.642  67.360  1.00  0.00    -0.201 A  
HETATM   23  C   UNL     1      -8.270  13.281  67.578  1.00  0.00    -0.184 A  
HETATM   24  C   UNL     1      -7.307  12.598  68.363  1.00  0.00    -0.118 A  
HETATM   25  C   UNL     1      -6.205  13.222  68.960  1.00  0.00    -0.093 A  
HETATM   26  C   UNL     1      -5.964  14.557  68.744  1.00  0.00    -0.084 A  
HETATM   27 CL   UNL     1      -5.162  12.315  69.991  1.00  0.00    -0.081 Cl 
HETATM   28  C   UNL     1      -6.842  15.258  67.931  1.00  0.00    -0.167 A  
ENDBRANCH  12  13
ENDBRANCH  11  12
ENDBRANCH   8  11
ENDBRANCH   4   5
ENDBRANCH   2   4
TORSDOF 5
ENDMDL
MODEL       95
REMARK 921   NORMALIZED FREE ENERGY PREDICTED BY IDOCK:   -5.07 KCAL/MOL
REMARK 922        TOTAL FREE ENERGY PREDICTED BY IDOCK:   -7.10 KCAL/MOL
REMARK 923 INTER-LIGAND FREE ENERGY PREDICTED BY IDOCK:   -6.60 KCAL/MOL
REMARK 924 INTRA-LIGAND FREE ENERGY PREDICTED BY IDOCK:   -0.50 KCAL/MOL
REMARK 927      BINDING AFFINITY PREDICTED BY RF-SCORE:    0.00 PKD
ROOT
HETATM    1  O   UNL     1      -8.419   4.591  65.451  1.00  0.00    -0.117 OA 
HETATM    2  C   UNL     1      -7.096   5.066  65.689  1.00  0.00    -0.067 C  
HETATM    3  H   UNL     1      -8.480   3.689  65.743  1.00  0.00     0.000 HD 
ENDROOT
BRANCH   2   4
HETATM    4  C   UNL     1      -6.998   6.519  65.218  1.00  0.00    -0.052 C  
BRANCH   4   5
HETATM    5  N   UNL     1      -8.265   7.278  65.226  1.00  0.00    -0.134 NA 
HETATM    6  C   UNL     1      -8.464   7.879  66.567  1.00  0.00    -0.134 C  
HETATM    7  C   UNL     1      -7.515   9.068  66.857  1.00  0.00    -0.090 C  
HETATM    8  N   UNL     1      -7.585  10.152  65.848  1.00  0.00    -0.121 NA 
HETATM    9  C   UNL     1      -7.373   9.557  64.514  1.00  0.00    -0.114 C  
HETATM   10  C   UNL     1      -8.303   8.359  64.213  1.00  0.00    -0.083 C  
BRANCH   8  11
HETATM   11  C   UNL     1      -8.855  10.908  65.895  1.00  0.00    -0.186 C  
BRANCH  11  12
HETATM   12  C   UNL     1      -8.911  11.728  67.187  1.00  0.00    -0.173 C  
BRANCH  12  13
HETATM   13  C   UNL     1      -9.876  11.310  68.247  1.00  0.00    -0.201 C  
HETATM   14  C   UNL     1     -10.806  12.051  68.914  1.00  0.00    -0.252 C  
HETATM   15  C   UNL     1     -11.610  11.295  69.972  1.00  0.00    -0.404 A  
HETATM   16  C   UNL     1     -11.593   9.883  70.089  1.00  0.00    -0.281 A  
HETATM   17  C   UNL     1     -12.294   9.195  71.088  1.00  0.00    -0.330 A  
HETATM   18  C   UNL     1     -13.072   9.895  71.987  1.00  0.00    -0.545 A  
HETATM   19  C   UNL     1     -13.140  11.277  71.883  1.00  0.00    -0.510 A  
HETATM   20  C   UNL     1     -12.416  11.981  70.895  1.00  0.00    -0.288 A  
HETATM   21  S   UNL     1     -12.624  13.737  70.969  1.00  0.00    -0.362 SA 
HETATM   22  C   UNL     1     -11.742  14.345  69.560  1.00  0.00    -0.313 A  
HETATM   23  C   UNL     1     -10.975  13.561  68.679  1.00  0.00    -0.289 A  
HETATM   24  C   UNL     1     -10.381  14.283  67.613  1.00  0.00    -0.248 A  
HETATM   25  C   UNL     1     -10.459  15.674  67.476  1.00  0.00    -0.285 A  
HETATM   26  C   UNL     1     -11.200  16.417  68.363  1.00  0.00    -0.324 A  
HETATM   27 CL   UNL     1      -9.600  16.458  66.204  1.00  0.00    -0.336 Cl 
HETATM   28  C   UNL     1     -11.855  15.751  69.388  1.00  0.00    -0.361 A  
ENDBRANCH  12  13
ENDBRANCH  11  12
ENDBRANCH   8  11
ENDBRANCH   4   5
ENDBRANCH   2   4
TORSDOF 5
ENDMDL
MODEL       96
REMARK 921   NORMALIZED FREE ENERGY PREDICTED BY IDOCK:   -5.05 KCAL/MOL
REMARK 922        TOTAL FREE ENERGY PREDICTED BY IDOCK:   -7.08 KCAL/MOL
REMARK 923 INTER-LIGAND FREE ENERGY PREDICTED BY IDOCK:   -6.51 KCAL/MOL
REMARK 924 INTRA-LIGAND FREE ENERGY PREDICTED BY IDOCK:   -0.57 KCAL/MOL
REMARK 927      BINDING AFFINITY PREDICTED BY RF-SCORE:    0.00 PKD
ROOT
HETATM    1  O   UNL     1      -9.213  19.991  66.290  1.00  0.00    -0.432 OA 
HETATM    2  C   UNL     1      -8.144  20.366  67.156  1.00  0.00    -0.329 C  
HETATM    3  H   UNL     1      -9.850  20.696  66.264  1.00  0.00     0.000 HD 
ENDROOT
BRANCH   2   4
HETATM    4  C   UNL     1      -7.117  19.232  67.198  1.00  0.00    -0.203 C  
BRANCH   4   5
HETATM    5  N   UNL     1      -7.356  18.195  68.223  1.00  0.00    -0.252 NA 
HETATM    6  C   UNL     1      -8.192  17.118  67.639  1.00  0.00    -0.187 C  
HETATM    7  C   UNL     1      -7.432  16.228  66.624  1.00  0.00    -0.203 C  
HETATM    8  N   UNL     1      -6.199  15.613  67.171  1.00  0.00    -0.305 NA 
HETATM    9  C   UNL     1      -5.360  16.685  67.739  1.00  0.00    -0.127 C  
HETATM   10  C   UNL     1      -6.106  17.593  68.744  1.00  0.00    -0.189 C  
BRANCH   8  11
HETATM   11  C   UNL     1      -6.470  14.564  68.176  1.00  0.00    -0.139 C  
BRANCH  11  12
HETATM   12  C   UNL     1      -6.829  13.257  67.463  1.00  0.00    -0.155 C  
BRANCH  12  13
HETATM   13  C   UNL     1      -7.453  12.163  68.266  1.00  0.00    -0.107 C  
HETATM   14  C   UNL     1      -8.767  11.811  68.376  1.00  0.00    -0.155 C  
HETATM   15  C   UNL     1      -9.054  10.648  69.325  1.00  0.00    -0.117 A  
HETATM   16  C   UNL     1      -8.037   9.818  69.858  1.00  0.00    -0.192 A  
HETATM   17  C   UNL     1      -8.297   8.781  70.763  1.00  0.00    -0.185 A  
HETATM   18  C   UNL     1      -9.596   8.511  71.142  1.00  0.00    -0.248 A  
HETATM   19  C   UNL     1     -10.624   9.282  70.616  1.00  0.00    -0.324 A  
HETATM   20  C   UNL     1     -10.367  10.346  69.722  1.00  0.00    -0.208 A  
HETATM   21  S   UNL     1     -11.820  11.213  69.205  1.00  0.00    -0.362 SA 
HETATM   22  C   UNL     1     -11.236  12.375  68.004  1.00  0.00    -0.268 A  
HETATM   23  C   UNL     1      -9.887  12.585  67.664  1.00  0.00    -0.202 A  
HETATM   24  C   UNL     1      -9.679  13.560  66.656  1.00  0.00    -0.281 A  
HETATM   25  C   UNL     1     -10.705  14.330  66.094  1.00  0.00    -0.295 A  
HETATM   26  C   UNL     1     -12.011  14.116  66.459  1.00  0.00    -0.466 A  
HETATM   27 CL   UNL     1     -10.320  15.569  64.958  1.00  0.00    -0.387 Cl 
HETATM   28  C   UNL     1     -12.276  13.128  67.396  1.00  0.00    -0.195 A  
ENDBRANCH  12  13
ENDBRANCH  11  12
ENDBRANCH   8  11
ENDBRANCH   4   5
ENDBRANCH   2   4
TORSDOF 5
ENDMDL
MODEL       97
REMARK 921   NORMALIZED FREE ENERGY PREDICTED BY IDOCK:   -5.03 KCAL/MOL
REMARK 922        TOTAL FREE ENERGY PREDICTED BY IDOCK:   -7.05 KCAL/MOL
REMARK 923 INTER-LIGAND FREE ENERGY PREDICTED BY IDOCK:   -6.96 KCAL/MOL
REMARK 924 INTRA-LIGAND FREE ENERGY PREDICTED BY IDOCK:   -0.09 KCAL/MOL
REMARK 927      BINDING AFFINITY PREDICTED BY RF-SCORE:    0.00 PKD
ROOT
HETATM    1  O   UNL     1      -8.945  20.299  65.574  1.00  0.00    -0.430 OA 
HETATM    2  C   UNL     1      -9.796  20.437  66.709  1.00  0.00    -0.400 C  
HETATM    3  H   UNL     1      -8.613  21.155  65.331  1.00  0.00     0.000 HD 
ENDROOT
BRANCH   2   4
HETATM    4  C   UNL     1     -10.331  19.057  67.100  1.00  0.00    -0.416 C  
BRANCH   4   5
HETATM    5  N   UNL     1      -9.305  18.030  67.371  1.00  0.00    -0.252 NA 
HETATM    6  C   UNL     1      -9.373  17.640  68.800  1.00  0.00    -0.228 C  
HETATM    7  C   UNL     1     -10.615  16.783  69.149  1.00  0.00    -0.343 C  
HETATM    8  N   UNL     1     -10.746  15.555  68.327  1.00  0.00    -0.262 NA 
HETATM    9  C   UNL     1     -10.694  15.943  66.904  1.00  0.00    -0.289 C  
HETATM   10  C   UNL     1      -9.467  16.812  66.542  1.00  0.00    -0.266 C  
BRANCH   8  11
HETATM   11  C   UNL     1      -9.720  14.537  68.637  1.00  0.00    -0.221 C  
BRANCH  11  12
HETATM   12  C   UNL     1     -10.374  13.152  68.674  1.00  0.00    -0.207 C  
BRANCH  12  13
HETATM   13  C   UNL     1      -9.510  11.958  68.433  1.00  0.00    -0.189 C  
HETATM   14  C   UNL     1      -9.240  11.305  67.267  1.00  0.00    -0.170 C  
HETATM   15  C   UNL     1      -8.328  10.085  67.396  1.00  0.00    -0.118 A  
HETATM   16  C   UNL     1      -7.601   9.788  68.575  1.00  0.00    -0.080 A  
HETATM   17  C   UNL     1      -6.802   8.645  68.707  1.00  0.00    -0.062 A  
HETATM   18  C   UNL     1      -6.671   7.772  67.647  1.00  0.00    -0.068 A  
HETATM   19  C   UNL     1      -7.343   8.047  66.464  1.00  0.00    -0.084 A  
HETATM   20  C   UNL     1      -8.171   9.184  66.330  1.00  0.00    -0.114 A  
HETATM   21  S   UNL     1      -8.954   9.317  64.749  1.00  0.00    -0.120 SA 
HETATM   22  C   UNL     1      -9.798  10.873  64.805  1.00  0.00    -0.288 A  
HETATM   23  C   UNL     1      -9.877  11.716  65.929  1.00  0.00    -0.262 A  
HETATM   24  C   UNL     1     -10.595  12.919  65.714  1.00  0.00    -0.293 A  
HETATM   25  C   UNL     1     -11.258  13.227  64.519  1.00  0.00    -0.362 A  
HETATM   26  C   UNL     1     -11.179  12.376  63.444  1.00  0.00    -0.492 A  
HETATM   27 CL   UNL     1     -12.198  14.667  64.409  1.00  0.00    -0.511 Cl 
HETATM   28  C   UNL     1     -10.434  11.214  63.582  1.00  0.00    -0.438 A  
ENDBRANCH  12  13
ENDBRANCH  11  12
ENDBRANCH   8  11
ENDBRANCH   4   5
ENDBRANCH   2   4
TORSDOF 5
ENDMDL
MODEL       98
REMARK 921   NORMALIZED FREE ENERGY PREDICTED BY IDOCK:   -5.01 KCAL/MOL
REMARK 922        TOTAL FREE ENERGY PREDICTED BY IDOCK:   -7.02 KCAL/MOL
REMARK 923 INTER-LIGAND FREE ENERGY PREDICTED BY IDOCK:   -6.54 KCAL/MOL
REMARK 924 INTRA-LIGAND FREE ENERGY PREDICTED BY IDOCK:   -0.48 KCAL/MOL
REMARK 927      BINDING AFFINITY PREDICTED BY RF-SCORE:    0.00 PKD
ROOT
HETATM    1  O   UNL     1      -9.789   2.851  66.805  1.00  0.00    -0.377 OA 
HETATM    2  C   UNL     1      -9.267   3.782  67.750  1.00  0.00    -0.173 C  
HETATM    3  H   UNL     1     -10.095   2.080  67.268  1.00  0.00     0.000 HD 
ENDROOT
BRANCH   2   4
HETATM    4  C   UNL     1      -8.774   5.024  67.005  1.00  0.00    -0.103 C  
BRANCH   4   5
HETATM    5  N   UNL     1      -8.574   6.228  67.837  1.00  0.00    -0.116 NA 
HETATM    6  C   UNL     1      -7.899   7.271  67.028  1.00  0.00    -0.112 C  
HETATM    7  C   UNL     1      -8.817   7.915  65.960  1.00  0.00    -0.158 C  
HETATM    8  N   UNL     1     -10.066   8.492  66.512  1.00  0.00    -0.284 NA 
HETATM    9  C   UNL     1     -10.747   7.450  67.305  1.00  0.00    -0.308 C  
HETATM   10  C   UNL     1      -9.840   6.787  68.367  1.00  0.00    -0.136 C  
BRANCH   8  11
HETATM   11  C   UNL     1      -9.837   9.708  67.320  1.00  0.00    -0.175 C  
BRANCH  11  12
HETATM   12  C   UNL     1      -9.083  10.743  66.480  1.00  0.00    -0.181 C  
BRANCH  12  13
HETATM   13  C   UNL     1      -8.622  11.995  67.150  1.00  0.00    -0.182 C  
HETATM   14  C   UNL     1      -9.058  13.277  66.986  1.00  0.00    -0.232 C  
HETATM   15  C   UNL     1      -8.327  14.328  67.822  1.00  0.00    -0.174 A  
HETATM   16  C   UNL     1      -7.445  13.996  68.878  1.00  0.00    -0.095 A  
HETATM   17  C   UNL     1      -6.741  14.958  69.613  1.00  0.00    -0.172 A  
HETATM   18  C   UNL     1      -6.925  16.299  69.341  1.00  0.00    -0.212 A  
HETATM   19  C   UNL     1      -7.807  16.665  68.334  1.00  0.00    -0.202 A  
HETATM   20  C   UNL     1      -8.501  15.699  67.571  1.00  0.00    -0.167 A  
HETATM   21  S   UNL     1      -9.545  16.390  66.321  1.00  0.00    -0.330 SA 
HETATM   22  C   UNL     1     -10.387  14.994  65.629  1.00  0.00    -0.353 A  
HETATM   23  C   UNL     1     -10.149  13.650  65.969  1.00  0.00    -0.320 A  
HETATM   24  C   UNL     1     -10.968  12.716  65.287  1.00  0.00    -0.320 A  
HETATM   25  C   UNL     1     -11.883  13.067  64.286  1.00  0.00    -0.396 A  
HETATM   26  C   UNL     1     -12.081  14.387  63.962  1.00  0.00    -0.312 A  
HETATM   27 CL   UNL     1     -12.743  11.835  63.442  1.00  0.00    -0.588 Cl 
HETATM   28  C   UNL     1     -11.349  15.347  64.645  1.00  0.00    -0.361 A  
ENDBRANCH  12  13
ENDBRANCH  11  12
ENDBRANCH   8  11
ENDBRANCH   4   5
ENDBRANCH   2   4
TORSDOF 5
ENDMDL
MODEL       99
REMARK 921   NORMALIZED FREE ENERGY PREDICTED BY IDOCK:   -4.98 KCAL/MOL
REMARK 922        TOTAL FREE ENERGY PREDICTED BY IDOCK:   -6.98 KCAL/MOL
REMARK 923 INTER-LIGAND FREE ENERGY PREDICTED BY IDOCK:   -6.56 KCAL/MOL
REMARK 924 INTRA-LIGAND FREE ENERGY PREDICTED BY IDOCK:   -0.43 KCAL/MOL
REMARK 927      BINDING AFFINITY PREDICTED BY RF-SCORE:    0.00 PKD
ROOT
HETATM    1  O   UNL     1      -6.213  20.646  70.692  1.00  0.00    -0.510 OA 
HETATM    2  C   UNL     1      -5.363  20.837  69.563  1.00  0.00    -0.371 C  
HETATM    3  H   UNL     1      -5.690  20.698  71.484  1.00  0.00     0.000 HD 
ENDROOT
BRANCH   2   4
HETATM    4  C   UNL     1      -6.204  20.754  68.288  1.00  0.00    -0.334 C  
BRANCH   4   5
HETATM    5  N   UNL     1      -6.018  19.531  67.481  1.00  0.00    -0.193 NA 
HETATM    6  C   UNL     1      -6.187  18.343  68.352  1.00  0.00    -0.199 C  
HETATM    7  C   UNL     1      -7.656  18.087  68.771  1.00  0.00    -0.270 C  
HETATM    8  N   UNL     1      -8.591  17.960  67.628  1.00  0.00    -0.239 NA 
HETATM    9  C   UNL     1      -8.436  19.148  66.767  1.00  0.00    -0.303 C  
HETATM   10  C   UNL     1      -6.972  19.427  66.351  1.00  0.00    -0.218 C  
BRANCH   8  11
HETATM   11  C   UNL     1      -8.396  16.716  66.853  1.00  0.00    -0.210 C  
BRANCH  11  12
HETATM   12  C   UNL     1      -9.184  15.579  67.511  1.00  0.00    -0.200 C  
BRANCH  12  13
HETATM   13  C   UNL     1      -8.547  14.230  67.584  1.00  0.00    -0.186 C  
HETATM   14  C   UNL     1      -8.807  13.108  66.854  1.00  0.00    -0.184 C  
HETATM   15  C   UNL     1      -7.975  11.879  67.224  1.00  0.00    -0.171 A  
HETATM   16  C   UNL     1      -6.842  11.943  68.071  1.00  0.00    -0.072 A  
HETATM   17  C   UNL     1      -6.108  10.810  68.446  1.00  0.00    -0.046 A  
HETATM   18  C   UNL     1      -6.460   9.570  67.954  1.00  0.00    -0.062 A  
HETATM   19  C   UNL     1      -7.545   9.473  67.094  1.00  0.00    -0.091 A  
HETATM   20  C   UNL     1      -8.307  10.607  66.732  1.00  0.00    -0.132 A  
HETATM   21  S   UNL     1      -9.663  10.244  65.655  1.00  0.00    -0.267 SA 
HETATM   22  C   UNL     1     -10.342  11.830  65.253  1.00  0.00    -0.274 A  
HETATM   23  C   UNL     1      -9.918  13.057  65.793  1.00  0.00    -0.260 A  
HETATM   24  C   UNL     1     -10.609  14.190  65.295  1.00  0.00    -0.387 A  
HETATM   25  C   UNL     1     -11.689  14.115  64.407  1.00  0.00    -0.392 A  
HETATM   26  C   UNL     1     -12.094  12.900  63.910  1.00  0.00    -0.553 A  
HETATM   27 CL   UNL     1     -12.530  15.551  63.958  1.00  0.00    -0.033 Cl 
HETATM   28  C   UNL     1     -11.409  11.765  64.317  1.00  0.00    -0.400 A  
ENDBRANCH  12  13
ENDBRANCH  11  12
ENDBRANCH   8  11
ENDBRANCH   4   5
ENDBRANCH   2   4
TORSDOF 5
ENDMDL
MODEL      100
REMARK 921   NORMALIZED FREE ENERGY PREDICTED BY IDOCK:   -4.92 KCAL/MOL
REMARK 922        TOTAL FREE ENERGY PREDICTED BY IDOCK:   -6.91 KCAL/MOL
REMARK 923 INTER-LIGAND FREE ENERGY PREDICTED BY IDOCK:   -6.45 KCAL/MOL
REMARK 924 INTRA-LIGAND FREE ENERGY PREDICTED BY IDOCK:   -0.46 KCAL/MOL
REMARK 927      BINDING AFFINITY PREDICTED BY RF-SCORE:    0.00 PKD
ROOT
HETATM    1  O   UNL     1      -5.126  16.778  71.199  1.00  0.00    -0.265 OA 
HETATM    2  C   UNL     1      -5.370  16.812  69.795  1.00  0.00    -0.171 C  
HETATM    3  H   UNL     1      -4.381  17.334  71.396  1.00  0.00     0.000 HD 
ENDROOT
BRANCH   2   4
HETATM    4  C   UNL     1      -6.570  15.917  69.477  1.00  0.00    -0.191 C  
BRANCH   4   5
HETATM    5  N   UNL     1      -7.617  16.531  68.636  1.00  0.00    -0.200 NA 
HETATM    6  C   UNL     1      -7.792  15.720  67.407  1.00  0.00    -0.175 C  
HETATM    7  C   UNL     1      -8.501  14.366  67.656  1.00  0.00    -0.185 C  
HETATM    8  N   UNL     1      -9.821  14.493  68.318  1.00  0.00    -0.222 NA 
HETATM    9  C   UNL     1      -9.646  15.287  69.550  1.00  0.00    -0.215 C  
HETATM   10  C   UNL     1      -8.927  16.637  69.322  1.00  0.00    -0.052 C  
BRANCH   8  11
HETATM   11  C   UNL     1     -10.854  15.090  67.445  1.00  0.00    -0.305 C  
BRANCH  11  12
HETATM   12  C   UNL     1     -11.839  14.002  67.006  1.00  0.00    -0.458 C  
BRANCH  12  13
HETATM   13  C   UNL     1     -11.407  12.576  67.111  1.00  0.00    -0.381 C  
HETATM   14  C   UNL     1     -11.538  11.706  68.153  1.00  0.00    -0.389 C  
HETATM   15  C   UNL     1     -10.944  10.316  67.922  1.00  0.00    -0.350 A  
HETATM   16  C   UNL     1     -10.521   9.860  66.649  1.00  0.00    -0.239 A  
HETATM   17  C   UNL     1      -9.936   8.604  66.448  1.00  0.00    -0.331 A  
HETATM   18  C   UNL     1      -9.786   7.737  67.511  1.00  0.00    -0.221 A  
HETATM   19  C   UNL     1     -10.219   8.136  68.768  1.00  0.00    -0.221 A  
HETATM   20  C   UNL     1     -10.787   9.412  68.985  1.00  0.00    -0.136 A  
HETATM   21  S   UNL     1     -11.235   9.719  70.669  1.00  0.00    -0.358 SA 
HETATM   22  C   UNL     1     -12.038  11.297  70.630  1.00  0.00    -0.383 A  
HETATM   23  C   UNL     1     -12.160  12.120  69.496  1.00  0.00    -0.263 A  
HETATM   24  C   UNL     1     -12.865  13.329  69.719  1.00  0.00     0.491 A  
HETATM   25  C   UNL     1     -13.332  13.738  70.975  1.00  0.00    -0.086 A  
HETATM   26  C   UNL     1     -13.183  12.921  72.069  1.00  0.00    -0.549 A  
HETATM   27 CL   UNL     1     -14.075  15.284  71.150  1.00  0.00    -0.508 Cl 
HETATM   28  C   UNL     1     -12.555  11.697  71.891  1.00  0.00    -0.083 A  
ENDBRANCH  12  13
ENDBRANCH  11  12
ENDBRANCH   8  11
ENDBRANCH   4   5
ENDBRANCH   2   4
TORSDOF 5
ENDMDL
MODEL      101
REMARK 921   NORMALIZED FREE ENERGY PREDICTED BY IDOCK:   -4.90 KCAL/MOL
REMARK 922        TOTAL FREE ENERGY PREDICTED BY IDOCK:   -6.88 KCAL/MOL
REMARK 923 INTER-LIGAND FREE ENERGY PREDICTED BY IDOCK:   -6.51 KCAL/MOL
REMARK 924 INTRA-LIGAND FREE ENERGY PREDICTED BY IDOCK:   -0.37 KCAL/MOL
REMARK 927      BINDING AFFINITY PREDICTED BY RF-SCORE:    0.00 PKD
ROOT
HETATM    1  O   UNL     1     -12.245  15.968  70.737  1.00  0.00    -0.481 OA 
HETATM    2  C   UNL     1     -11.147  16.293  69.889  1.00  0.00    -0.347 C  
HETATM    3  H   UNL     1     -11.993  16.118  71.641  1.00  0.00     0.000 HD 
ENDROOT
BRANCH   2   4
HETATM    4  C   UNL     1     -11.553  16.051  68.434  1.00  0.00    -0.279 C  
BRANCH   4   5
HETATM    5  N   UNL     1     -10.560  15.337  67.606  1.00  0.00    -0.264 NA 
HETATM    6  C   UNL     1     -10.250  14.031  68.237  1.00  0.00    -0.249 C  
HETATM    7  C   UNL     1     -11.397  12.997  68.113  1.00  0.00    -0.294 C  
HETATM    8  N   UNL     1     -11.830  12.747  66.717  1.00  0.00    -0.407 NA 
HETATM    9  C   UNL     1     -12.153  14.044  66.093  1.00  0.00    -0.446 C  
HETATM   10  C   UNL     1     -11.024  15.093  66.220  1.00  0.00    -0.335 C  
BRANCH   8  11
HETATM   11  C   UNL     1     -10.825  12.011  65.920  1.00  0.00    -0.288 C  
BRANCH  11  12
HETATM   12  C   UNL     1      -9.970  11.148  66.852  1.00  0.00    -0.230 C  
BRANCH  12  13
HETATM   13  C   UNL     1      -9.530   9.806  66.366  1.00  0.00    -0.237 C  
HETATM   14  C   UNL     1      -9.670   8.583  66.953  1.00  0.00    -0.286 C  
HETATM   15  C   UNL     1      -9.064   7.412  66.179  1.00  0.00    -0.167 A  
HETATM   16  C   UNL     1      -8.620   7.523  64.838  1.00  0.00     0.116 A  
HETATM   17  C   UNL     1      -8.023   6.462  64.146  1.00  0.00    -0.096 A  
HETATM   18  C   UNL     1      -7.883   5.234  64.758  1.00  0.00    -0.097 A  
HETATM   19  C   UNL     1      -8.337   5.078  66.061  1.00  0.00    -0.114 A  
HETATM   20  C   UNL     1      -8.917   6.150  66.776  1.00  0.00    -0.124 A  
HETATM   21  S   UNL     1      -9.392   5.734  68.429  1.00  0.00    -0.123 SA 
HETATM   22  C   UNL     1     -10.204   7.187  69.032  1.00  0.00    -0.190 A  
HETATM   23  C   UNL     1     -10.315   8.405  68.338  1.00  0.00    -0.239 A  
HETATM   24  C   UNL     1     -11.032   9.415  69.029  1.00  0.00    -0.094 A  
HETATM   25  C   UNL     1     -11.520   9.268  70.333  1.00  0.00    -0.213 A  
HETATM   26  C   UNL     1     -11.381   8.072  70.994  1.00  0.00    -0.294 A  
HETATM   27 CL   UNL     1     -12.276  10.604  71.119  1.00  0.00    -0.474 Cl 
HETATM   28  C   UNL     1     -10.743   7.031  70.337  1.00  0.00    -0.259 A  
ENDBRANCH  12  13
ENDBRANCH  11  12
ENDBRANCH   8  11
ENDBRANCH   4   5
ENDBRANCH   2   4
TORSDOF 5
ENDMDL
MODEL      102
REMARK 921   NORMALIZED FREE ENERGY PREDICTED BY IDOCK:   -4.89 KCAL/MOL
REMARK 922        TOTAL FREE ENERGY PREDICTED BY IDOCK:   -6.87 KCAL/MOL
REMARK 923 INTER-LIGAND FREE ENERGY PREDICTED BY IDOCK:   -6.13 KCAL/MOL
REMARK 924 INTRA-LIGAND FREE ENERGY PREDICTED BY IDOCK:   -0.75 KCAL/MOL
REMARK 927      BINDING AFFINITY PREDICTED BY RF-SCORE:    0.00 PKD
ROOT
HETATM    1  O   UNL     1     -13.761   8.974  73.123  1.00  0.00    -1.013 OA 
HETATM    2  C   UNL     1     -13.247  10.024  72.307  1.00  0.00    -0.305 C  
HETATM    3  H   UNL     1     -14.602   9.240  73.476  1.00  0.00     0.000 HD 
ENDROOT
BRANCH   2   4
HETATM    4  C   UNL     1     -11.893   9.595  71.739  1.00  0.00    -0.320 C  
BRANCH   4   5
HETATM    5  N   UNL     1     -11.894   9.210  70.313  1.00  0.00    -0.032 NA 
HETATM    6  C   UNL     1     -12.392  10.348  69.503  1.00  0.00     0.091 C  
HETATM    7  C   UNL     1     -11.384  11.518  69.395  1.00  0.00    -0.289 C  
HETATM    8  N   UNL     1     -10.057  11.121  68.867  1.00  0.00    -0.201 NA 
HETATM    9  C   UNL     1      -9.553   9.998  69.682  1.00  0.00    -0.226 C  
HETATM   10  C   UNL     1     -10.553   8.826  69.812  1.00  0.00    -0.224 C  
BRANCH   8  11
HETATM   11  C   UNL     1     -10.085  10.763  67.433  1.00  0.00    -0.193 C  
BRANCH  11  12
HETATM   12  C   UNL     1      -9.062  11.616  66.677  1.00  0.00    -0.196 C  
BRANCH  12  13
HETATM   13  C   UNL     1      -9.314  13.084  66.562  1.00  0.00    -0.220 C  
HETATM   14  C   UNL     1      -8.722  14.119  67.224  1.00  0.00    -0.229 C  
HETATM   15  C   UNL     1      -9.257  15.508  66.877  1.00  0.00    -0.257 A  
HETATM   16  C   UNL     1     -10.114  15.752  65.776  1.00  0.00    -0.399 A  
HETATM   17  C   UNL     1     -10.639  17.017  65.487  1.00  0.00    -0.184 A  
HETATM   18  C   UNL     1     -10.296  18.099  66.271  1.00  0.00    -0.407 A  
HETATM   19  C   UNL     1      -9.432  17.906  67.340  1.00  0.00    -0.258 A  
HETATM   20  C   UNL     1      -8.917  16.628  67.654  1.00  0.00    -0.205 A  
HETATM   21  S   UNL     1      -7.865  16.610  69.076  1.00  0.00    -0.172 SA 
HETATM   22  C   UNL     1      -7.257  14.948  69.153  1.00  0.00    -0.153 A  
HETATM   23  C   UNL     1      -7.652  13.897  68.305  1.00  0.00    -0.130 A  
HETATM   24  C   UNL     1      -7.004  12.662  68.558  1.00  0.00    -0.094 A  
HETATM   25  C   UNL     1      -6.110  12.453  69.615  1.00  0.00    -0.135 A  
HETATM   26  C   UNL     1      -5.758  13.494  70.439  1.00  0.00    -0.160 A  
HETATM   27 CL   UNL     1      -5.471  10.877  69.897  1.00  0.00    -0.046 Cl 
HETATM   28  C   UNL     1      -6.315  14.740  70.196  1.00  0.00    -0.169 A  
ENDBRANCH  12  13
ENDBRANCH  11  12
ENDBRANCH   8  11
ENDBRANCH   4   5
ENDBRANCH   2   4
TORSDOF 5
ENDMDL
MODEL      103
REMARK 921   NORMALIZED FREE ENERGY PREDICTED BY IDOCK:   -4.88 KCAL/MOL
REMARK 922        TOTAL FREE ENERGY PREDICTED BY IDOCK:   -6.86 KCAL/MOL
REMARK 923 INTER-LIGAND FREE ENERGY PREDICTED BY IDOCK:   -6.17 KCAL/MOL
REMARK 924 INTRA-LIGAND FREE ENERGY PREDICTED BY IDOCK:   -0.69 KCAL/MOL
REMARK 927      BINDING AFFINITY PREDICTED BY RF-SCORE:    0.00 PKD
ROOT
HETATM    1  O   UNL     1     -11.752   6.946  69.385  1.00  0.00    -0.585 OA 
HETATM    2  C   UNL     1     -10.906   6.492  68.331  1.00  0.00    -0.289 C  
HETATM    3  H   UNL     1     -11.852   6.249  70.023  1.00  0.00     0.000 HD 
ENDROOT
BRANCH   2   4
HETATM    4  C   UNL     1     -10.746   7.614  67.304  1.00  0.00    -0.274 C  
BRANCH   4   5
HETATM    5  N   UNL     1      -9.376   8.145  67.149  1.00  0.00    -0.139 NA 
HETATM    6  C   UNL     1      -9.260   8.816  65.832  1.00  0.00    -0.220 C  
HETATM    7  C   UNL     1     -10.010  10.169  65.759  1.00  0.00    -0.271 C  
HETATM    8  N   UNL     1      -9.606  11.135  66.809  1.00  0.00    -0.189 NA 
HETATM    9  C   UNL     1      -9.736  10.474  68.122  1.00  0.00    -0.153 C  
HETATM   10  C   UNL     1      -9.004   9.114  68.207  1.00  0.00    -0.129 C  
BRANCH   8  11
HETATM   11  C   UNL     1      -8.240  11.666  66.615  1.00  0.00    -0.140 C  
BRANCH  11  12
HETATM   12  C   UNL     1      -7.889  12.601  67.776  1.00  0.00    -0.154 C  
BRANCH  12  13
HETATM   13  C   UNL     1      -7.581  14.029  67.464  1.00  0.00    -0.195 C  
HETATM   14  C   UNL     1      -8.312  15.150  67.724  1.00  0.00    -0.159 C  
HETATM   15  C   UNL     1      -7.700  16.460  67.228  1.00  0.00    -0.194 A  
HETATM   16  C   UNL     1      -6.365  16.560  66.765  1.00  0.00    -0.091 A  
HETATM   17  C   UNL     1      -5.821  17.751  66.268  1.00  0.00    -0.239 A  
HETATM   18  C   UNL     1      -6.583  18.900  66.250  1.00  0.00    -0.234 A  
HETATM   19  C   UNL     1      -7.886  18.849  66.726  1.00  0.00    -0.262 A  
HETATM   20  C   UNL     1      -8.452  17.646  67.205  1.00  0.00    -0.216 A  
HETATM   21  S   UNL     1     -10.134  17.805  67.730  1.00  0.00    -0.363 SA 
HETATM   22  C   UNL     1     -10.538  16.218  68.404  1.00  0.00    -0.301 A  
HETATM   23  C   UNL     1      -9.696  15.092  68.392  1.00  0.00    -0.216 A  
HETATM   24  C   UNL     1     -10.243  13.941  69.014  1.00  0.00    -0.071 A  
HETATM   25  C   UNL     1     -11.546  13.876  69.523  1.00  0.00    -0.301 A  
HETATM   26  C   UNL     1     -12.353  14.988  69.504  1.00  0.00    -0.199 A  
HETATM   27 CL   UNL     1     -12.146  12.388  70.153  1.00  0.00    -0.401 Cl 
HETATM   28  C   UNL     1     -11.842  16.159  68.964  1.00  0.00    -0.181 A  
ENDBRANCH  12  13
ENDBRANCH  11  12
ENDBRANCH   8  11
ENDBRANCH   4   5
ENDBRANCH   2   4
TORSDOF 5
ENDMDL
MODEL      104
REMARK 921   NORMALIZED FREE ENERGY PREDICTED BY IDOCK:   -4.84 KCAL/MOL
REMARK 922        TOTAL FREE ENERGY PREDICTED BY IDOCK:   -6.80 KCAL/MOL
REMARK 923 INTER-LIGAND FREE ENERGY PREDICTED BY IDOCK:   -6.38 KCAL/MOL
REMARK 924 INTRA-LIGAND FREE ENERGY PREDICTED BY IDOCK:   -0.43 KCAL/MOL
REMARK 927      BINDING AFFINITY PREDICTED BY RF-SCORE:    0.00 PKD
ROOT
HETATM    1  O   UNL     1      -5.384   9.100  70.880  1.00  0.00    -0.027 OA 
HETATM    2  C   UNL     1      -5.788   8.017  71.715  1.00  0.00    -0.036 C  
HETATM    3  H   UNL     1      -5.446   9.909  71.374  1.00  0.00     0.000 HD 
ENDROOT
BRANCH   2   4
HETATM    4  C   UNL     1      -5.689   6.713  70.920  1.00  0.00    -0.027 C  
BRANCH   4   5
HETATM    5  N   UNL     1      -6.962   5.993  70.717  1.00  0.00    -0.065 NA 
HETATM    6  C   UNL     1      -8.057   6.978  70.549  1.00  0.00    -0.114 C  
HETATM    7  C   UNL     1      -8.022   7.714  69.186  1.00  0.00    -0.120 C  
HETATM    8  N   UNL     1      -8.032   6.806  68.014  1.00  0.00    -0.113 NA 
HETATM    9  C   UNL     1      -6.933   5.833  68.173  1.00  0.00    -0.069 C  
HETATM   10  C   UNL     1      -6.945   5.100  69.534  1.00  0.00    -0.054 C  
BRANCH   8  11
HETATM   11  C   UNL     1      -9.326   6.117  67.823  1.00  0.00    -0.109 C  
BRANCH  11  12
HETATM   12  C   UNL     1     -10.456   7.150  67.815  1.00  0.00    -0.284 C  
BRANCH  12  13
HETATM   13  C   UNL     1     -10.351   8.302  66.870  1.00  0.00    -0.391 C  
HETATM   14  C   UNL     1     -10.577   9.629  67.093  1.00  0.00    -0.298 C  
HETATM   15  C   UNL     1     -10.405  10.535  65.873  1.00  0.00    -0.275 A  
HETATM   16  C   UNL     1      -9.809  10.097  64.665  1.00  0.00    -0.361 A  
HETATM   17  C   UNL     1      -9.693  10.914  63.534  1.00  0.00    -0.384 A  
HETATM   18  C   UNL     1     -10.138  12.219  63.582  1.00  0.00    -0.369 A  
HETATM   19  C   UNL     1     -10.699  12.695  64.759  1.00  0.00    -0.335 A  
HETATM   20  C   UNL     1     -10.842  11.869  65.897  1.00  0.00    -0.297 A  
HETATM   21  S   UNL     1     -11.613  12.673  67.272  1.00  0.00    -0.373 SA 
HETATM   22  C   UNL     1     -11.536  11.480  68.579  1.00  0.00    -0.292 A  
HETATM   23  C   UNL     1     -11.055  10.164  68.452  1.00  0.00    -0.273 A  
HETATM   24  C   UNL     1     -11.079   9.410  69.652  1.00  0.00    -0.163 A  
HETATM   25  C   UNL     1     -11.617   9.880  70.857  1.00  0.00    -0.373 A  
HETATM   26  C   UNL     1     -12.097  11.164  70.946  1.00  0.00    -0.427 A  
HETATM   27 CL   UNL     1     -11.699   8.834  72.224  1.00  0.00    -0.426 Cl 
HETATM   28  C   UNL     1     -12.037  11.966  69.816  1.00  0.00    -0.321 A  
ENDBRANCH  12  13
ENDBRANCH  11  12
ENDBRANCH   8  11
ENDBRANCH   4   5
ENDBRANCH   2   4
TORSDOF 5
ENDMDL
MODEL      105
REMARK 921   NORMALIZED FREE ENERGY PREDICTED BY IDOCK:   -4.79 KCAL/MOL
REMARK 922        TOTAL FREE ENERGY PREDICTED BY IDOCK:   -6.74 KCAL/MOL
REMARK 923 INTER-LIGAND FREE ENERGY PREDICTED BY IDOCK:   -6.64 KCAL/MOL
REMARK 924 INTRA-LIGAND FREE ENERGY PREDICTED BY IDOCK:   -0.10 KCAL/MOL
REMARK 927      BINDING AFFINITY PREDICTED BY RF-SCORE:    0.00 PKD
ROOT
HETATM    1  O   UNL     1      -8.926   5.963  63.305  1.00  0.00    -0.271 OA 
HETATM    2  C   UNL     1      -7.592   6.401  63.550  1.00  0.00    -0.088 C  
HETATM    3  H   UNL     1      -9.073   5.146  63.768  1.00  0.00     0.000 HD 
ENDROOT
BRANCH   2   4
HETATM    4  C   UNL     1      -7.356   7.717  62.804  1.00  0.00    -0.095 C  
BRANCH   4   5
HETATM    5  N   UNL     1      -6.936   8.857  63.644  1.00  0.00    -0.088 NA 
HETATM    6  C   UNL     1      -7.749  10.046  63.291  1.00  0.00    -0.147 C  
HETATM    7  C   UNL     1      -9.214   9.961  63.785  1.00  0.00    -0.243 C  
HETATM    8  N   UNL     1      -9.343   9.728  65.244  1.00  0.00    -0.236 NA 
HETATM    9  C   UNL     1      -8.546   8.537  65.594  1.00  0.00    -0.177 C  
HETATM   10  C   UNL     1      -7.083   8.599  65.095  1.00  0.00    -0.086 C  
BRANCH   8  11
HETATM   11  C   UNL     1      -8.937  10.894  66.056  1.00  0.00    -0.186 C  
BRANCH  11  12
HETATM   12  C   UNL     1     -10.174  11.725  66.407  1.00  0.00    -0.248 C  
BRANCH  12  13
HETATM   13  C   UNL     1      -9.999  13.190  66.637  1.00  0.00    -0.270 C  
HETATM   14  C   UNL     1     -10.363  13.949  67.710  1.00  0.00    -0.240 C  
HETATM   15  C   UNL     1     -10.054  15.442  67.591  1.00  0.00    -0.236 A  
HETATM   16  C   UNL     1      -9.225  15.979  66.575  1.00  0.00    -0.307 A  
HETATM   17  C   UNL     1      -8.981  17.351  66.440  1.00  0.00    -0.274 A  
HETATM   18  C   UNL     1      -9.528  18.238  67.343  1.00  0.00    -0.266 A  
HETATM   19  C   UNL     1     -10.319  17.747  68.372  1.00  0.00    -0.378 A  
HETATM   20  C   UNL     1     -10.592  16.366  68.501  1.00  0.00    -0.304 A  
HETATM   21  S   UNL     1     -11.649  15.969  69.863  1.00  0.00    -0.251 SA 
HETATM   22  C   UNL     1     -11.706  14.199  69.876  1.00  0.00    -0.309 A  
HETATM   23  C   UNL     1     -11.109  13.360  68.918  1.00  0.00    -0.307 A  
HETATM   24  C   UNL     1     -11.281  11.974  69.161  1.00  0.00    -0.305 A  
HETATM   25  C   UNL     1     -12.054  11.457  70.208  1.00  0.00    -0.374 A  
HETATM   26  C   UNL     1     -12.641  12.302  71.118  1.00  0.00    -0.353 A  
HETATM   27 CL   UNL     1     -12.289   9.754  70.339  1.00  0.00    -0.147 Cl 
HETATM   28  C   UNL     1     -12.450  13.667  70.962  1.00  0.00    -0.456 A  
ENDBRANCH  12  13
ENDBRANCH  11  12
ENDBRANCH   8  11
ENDBRANCH   4   5
ENDBRANCH   2   4
TORSDOF 5
ENDMDL
MODEL      106
REMARK 921   NORMALIZED FREE ENERGY PREDICTED BY IDOCK:   -4.78 KCAL/MOL
REMARK 922        TOTAL FREE ENERGY PREDICTED BY IDOCK:   -6.72 KCAL/MOL
REMARK 923 INTER-LIGAND FREE ENERGY PREDICTED BY IDOCK:   -6.26 KCAL/MOL
REMARK 924 INTRA-LIGAND FREE ENERGY PREDICTED BY IDOCK:   -0.46 KCAL/MOL
REMARK 927      BINDING AFFINITY PREDICTED BY RF-SCORE:    0.00 PKD
ROOT
HETATM    1  O   UNL     1     -11.914  15.946  63.682  1.00  0.00    -1.239 OA 
HETATM    2  C   UNL     1     -11.216  15.589  64.873  1.00  0.00    -0.389 C  
HETATM    3  H   UNL     1     -12.238  16.835  63.769  1.00  0.00     0.000 HD 
ENDROOT
BRANCH   2   4
HETATM    4  C   UNL     1     -10.695  14.157  64.733  1.00  0.00    -0.419 C  
BRANCH   4   5
HETATM    5  N   UNL     1     -11.195  13.197  65.738  1.00  0.00    -0.284 NA 
HETATM    6  C   UNL     1     -11.720  11.997  65.044  1.00  0.00    -0.255 C  
HETATM    7  C   UNL     1     -10.613  11.098  64.440  1.00  0.00    -0.343 C  
HETATM    8  N   UNL     1      -9.596  10.656  65.423  1.00  0.00    -0.213 NA 
HETATM    9  C   UNL     1      -9.061  11.851  66.104  1.00  0.00    -0.161 C  
HETATM   10  C   UNL     1     -10.154  12.767  66.702  1.00  0.00    -0.243 C  
BRANCH   8  11
HETATM   11  C   UNL     1     -10.119   9.679  66.401  1.00  0.00    -0.247 C  
BRANCH  11  12
HETATM   12  C   UNL     1      -8.962   9.134  67.245  1.00  0.00    -0.136 C  
BRANCH  12  13
HETATM   13  C   UNL     1      -9.288   8.242  68.397  1.00  0.00    -0.136 C  
HETATM   14  C   UNL     1      -9.089   6.900  68.538  1.00  0.00    -0.127 C  
HETATM   15  C   UNL     1      -9.581   6.301  69.855  1.00  0.00    -0.174 A  
HETATM   16  C   UNL     1      -9.978   7.092  70.961  1.00  0.00    -0.196 A  
HETATM   17  C   UNL     1     -10.472   6.542  72.151  1.00  0.00    -0.229 A  
HETATM   18  C   UNL     1     -10.552   5.172  72.293  1.00  0.00    -0.278 A  
HETATM   19  C   UNL     1     -10.141   4.363  71.242  1.00  0.00    -0.202 A  
HETATM   20  C   UNL     1      -9.666   4.910  70.029  1.00  0.00    -0.215 A  
HETATM   21  S   UNL     1      -9.230   3.696  68.818  1.00  0.00    -0.168 SA 
HETATM   22  C   UNL     1      -8.545   4.633  67.481  1.00  0.00    -0.103 A  
HETATM   23  C   UNL     1      -8.490   6.037  67.416  1.00  0.00    -0.104 A  
HETATM   24  C   UNL     1      -7.873   6.548  66.247  1.00  0.00    -0.105 A  
HETATM   25  C   UNL     1      -7.428   5.748  65.187  1.00  0.00    -0.078 A  
HETATM   26  C   UNL     1      -7.512   4.379  65.271  1.00  0.00    -0.077 A  
HETATM   27 CL   UNL     1      -6.799   6.486  63.763  1.00  0.00    -0.044 Cl 
HETATM   28  C   UNL     1      -8.050   3.825  66.423  1.00  0.00    -0.097 A  
ENDBRANCH  12  13
ENDBRANCH  11  12
ENDBRANCH   8  11
ENDBRANCH   4   5
ENDBRANCH   2   4
TORSDOF 5
ENDMDL
MODEL      107
REMARK 921   NORMALIZED FREE ENERGY PREDICTED BY IDOCK:   -4.71 KCAL/MOL
REMARK 922        TOTAL FREE ENERGY PREDICTED BY IDOCK:   -6.64 KCAL/MOL
REMARK 923 INTER-LIGAND FREE ENERGY PREDICTED BY IDOCK:   -6.34 KCAL/MOL
REMARK 924 INTRA-LIGAND FREE ENERGY PREDICTED BY IDOCK:   -0.29 KCAL/MOL
REMARK 927      BINDING AFFINITY PREDICTED BY RF-SCORE:    0.00 PKD
ROOT
HETATM    1  O   UNL     1     -11.615  16.436  63.836  1.00  0.00    -1.564 OA 
HETATM    2  C   UNL     1     -11.877  15.341  64.711  1.00  0.00    -0.232 C  
HETATM    3  H   UNL     1     -11.344  17.186  64.353  1.00  0.00     0.000 HD 
ENDROOT
BRANCH   2   4
HETATM    4  C   UNL     1     -12.314  14.133  63.878  1.00  0.00    -0.187 C  
BRANCH   4   5
HETATM    5  N   UNL     1     -12.667  12.923  64.649  1.00  0.00    -0.709 NA 
HETATM    6  C   UNL     1     -12.216  11.724  63.902  1.00  0.00    -0.297 C  
HETATM    7  C   UNL     1     -10.680  11.529  63.914  1.00  0.00    -0.395 C  
HETATM    8  N   UNL     1     -10.093  11.476  65.275  1.00  0.00    -0.257 NA 
HETATM    9  C   UNL     1     -10.528  12.678  66.013  1.00  0.00    -0.268 C  
HETATM   10  C   UNL     1     -12.059  12.895  66.000  1.00  0.00    -0.422 C  
BRANCH   8  11
HETATM   11  C   UNL     1     -10.444  10.245  66.012  1.00  0.00    -0.111 C  
BRANCH  11  12
HETATM   12  C   UNL     1      -9.194   9.375  66.175  1.00  0.00    -0.241 C  
BRANCH  12  13
HETATM   13  C   UNL     1      -9.127   8.448  67.344  1.00  0.00    -0.152 C  
HETATM   14  C   UNL     1      -8.605   8.657  68.587  1.00  0.00    -0.131 C  
HETATM   15  C   UNL     1      -8.679   7.461  69.536  1.00  0.00    -0.137 A  
HETATM   16  C   UNL     1      -9.453   6.306  69.263  1.00  0.00    -0.142 A  
HETATM   17  C   UNL     1      -9.484   5.193  70.112  1.00  0.00    -0.229 A  
HETATM   18  C   UNL     1      -8.768   5.209  71.291  1.00  0.00    -0.137 A  
HETATM   19  C   UNL     1      -8.023   6.336  71.610  1.00  0.00    -0.102 A  
HETATM   20  C   UNL     1      -7.966   7.453  70.746  1.00  0.00    -0.104 A  
HETATM   21  S   UNL     1      -6.931   8.762  71.335  1.00  0.00    -0.079 SA 
HETATM   22  C   UNL     1      -7.153  10.064  70.157  1.00  0.00    -0.154 A  
HETATM   23  C   UNL     1      -7.913   9.973  68.977  1.00  0.00    -0.108 A  
HETATM   24  C   UNL     1      -7.952  11.163  68.207  1.00  0.00    -0.127 A  
HETATM   25  C   UNL     1      -7.229  12.319  68.525  1.00  0.00    -0.103 A  
HETATM   26  C   UNL     1      -6.480  12.373  69.675  1.00  0.00    -0.063 A  
HETATM   27 CL   UNL     1      -7.260  13.669  67.453  1.00  0.00    -0.158 Cl 
HETATM   28  C   UNL     1      -6.459  11.256  70.496  1.00  0.00     0.266 A  
ENDBRANCH  12  13
ENDBRANCH  11  12
ENDBRANCH   8  11
ENDBRANCH   4   5
ENDBRANCH   2   4
TORSDOF 5
ENDMDL
MODEL      108
REMARK 921   NORMALIZED FREE ENERGY PREDICTED BY IDOCK:   -4.71 KCAL/MOL
REMARK 922        TOTAL FREE ENERGY PREDICTED BY IDOCK:   -6.63 KCAL/MOL
REMARK 923 INTER-LIGAND FREE ENERGY PREDICTED BY IDOCK:   -6.00 KCAL/MOL
REMARK 924 INTRA-LIGAND FREE ENERGY PREDICTED BY IDOCK:   -0.63 KCAL/MOL
REMARK 927      BINDING AFFINITY PREDICTED BY RF-SCORE:    0.00 PKD
ROOT
HETATM    1  O   UNL     1     -11.705  16.462  70.678  1.00  0.00    -0.516 OA 
HETATM    2  C   UNL     1     -10.742  16.712  69.657  1.00  0.00    -0.286 C  
HETATM    3  H   UNL     1     -11.379  16.807  71.501  1.00  0.00     0.000 HD 
ENDROOT
BRANCH   2   4
HETATM    4  C   UNL     1     -11.268  16.157  68.331  1.00  0.00    -0.358 C  
BRANCH   4   5
HETATM    5  N   UNL     1     -10.438  15.107  67.707  1.00  0.00    -0.244 NA 
HETATM    6  C   UNL     1     -10.350  13.947  68.626  1.00  0.00    -0.237 C  
HETATM    7  C   UNL     1     -11.664  13.134  68.723  1.00  0.00    -0.324 C  
HETATM    8  N   UNL     1     -12.169  12.651  67.415  1.00  0.00    -0.363 NA 
HETATM    9  C   UNL     1     -12.272  13.807  66.504  1.00  0.00    -0.430 C  
HETATM   10  C   UNL     1     -10.972  14.639  66.406  1.00  0.00    -0.325 C  
BRANCH   8  11
HETATM   11  C   UNL     1     -11.331  11.585  66.826  1.00  0.00    -0.238 C  
BRANCH  11  12
HETATM   12  C   UNL     1     -11.001  10.545  67.901  1.00  0.00    -0.352 C  
BRANCH  12  13
HETATM   13  C   UNL     1     -10.637   9.166  67.459  1.00  0.00    -0.317 C  
HETATM   14  C   UNL     1      -9.405   8.594  67.332  1.00  0.00    -0.174 C  
HETATM   15  C   UNL     1      -9.403   7.155  66.816  1.00  0.00    -0.199 A  
HETATM   16  C   UNL     1     -10.578   6.369  66.718  1.00  0.00    -0.328 A  
HETATM   17  C   UNL     1     -10.581   5.067  66.203  1.00  0.00    -0.321 A  
HETATM   18  C   UNL     1      -9.397   4.485  65.798  1.00  0.00    -0.162 A  
HETATM   19  C   UNL     1      -8.220   5.213  65.909  1.00  0.00    -0.115 A  
HETATM   20  C   UNL     1      -8.212   6.536  66.404  1.00  0.00    -0.116 A  
HETATM   21  S   UNL     1      -6.607   7.282  66.426  1.00  0.00    -0.054 SA 
HETATM   22  C   UNL     1      -6.861   8.849  67.210  1.00  0.00    -0.077 A  
HETATM   23  C   UNL     1      -8.107   9.369  67.605  1.00  0.00    -0.106 A  
HETATM   24  C   UNL     1      -8.043  10.639  68.232  1.00  0.00    -0.118 A  
HETATM   25  C   UNL     1      -6.862  11.378  68.376  1.00  0.00    -0.068 A  
HETATM   26  C   UNL     1      -5.661  10.852  67.964  1.00  0.00    -0.042 A  
HETATM   27 CL   UNL     1      -6.921  12.963  69.051  1.00  0.00    -0.088 Cl 
HETATM   28  C   UNL     1      -5.660   9.584  67.402  1.00  0.00    -0.040 A  
ENDBRANCH  12  13
ENDBRANCH  11  12
ENDBRANCH   8  11
ENDBRANCH   4   5
ENDBRANCH   2   4
TORSDOF 5
ENDMDL
MODEL      109
REMARK 921   NORMALIZED FREE ENERGY PREDICTED BY IDOCK:   -4.70 KCAL/MOL
REMARK 922        TOTAL FREE ENERGY PREDICTED BY IDOCK:   -6.62 KCAL/MOL
REMARK 923 INTER-LIGAND FREE ENERGY PREDICTED BY IDOCK:   -5.91 KCAL/MOL
REMARK 924 INTRA-LIGAND FREE ENERGY PREDICTED BY IDOCK:   -0.71 KCAL/MOL
REMARK 927      BINDING AFFINITY PREDICTED BY RF-SCORE:    0.00 PKD
ROOT
HETATM    1  O   UNL     1      -5.418   4.373  65.631  1.00  0.00    -0.012 OA 
HETATM    2  C   UNL     1      -5.212   5.566  66.383  1.00  0.00    -0.005 C  
HETATM    3  H   UNL     1      -4.952   4.443  64.806  1.00  0.00     0.000 HD 
ENDROOT
BRANCH   2   4
HETATM    4  C   UNL     1      -5.963   5.453  67.712  1.00  0.00    -0.022 C  
BRANCH   4   5
HETATM    5  N   UNL     1      -6.289   6.734  68.370  1.00  0.00    -0.030 NA 
HETATM    6  C   UNL     1      -7.462   7.342  67.698  1.00  0.00    -0.101 C  
HETATM    7  C   UNL     1      -8.795   6.614  68.003  1.00  0.00    -0.115 C  
HETATM    8  N   UNL     1      -9.098   6.499  69.450  1.00  0.00    -0.141 NA 
HETATM    9  C   UNL     1      -7.936   5.880  70.118  1.00  0.00    -0.101 C  
HETATM   10  C   UNL     1      -6.595   6.586  69.813  1.00  0.00    -0.048 C  
BRANCH   8  11
HETATM   11  C   UNL     1      -9.442   7.793  70.077  1.00  0.00    -0.161 C  
BRANCH  11  12
HETATM   12  C   UNL     1     -10.821   8.244  69.587  1.00  0.00    -0.154 C  
BRANCH  12  13
HETATM   13  C   UNL     1     -11.395   9.500  70.155  1.00  0.00    -0.241 C  
HETATM   14  C   UNL     1     -11.471  10.745  69.603  1.00  0.00    -0.376 C  
HETATM   15  C   UNL     1     -12.101  11.818  70.492  1.00  0.00    -0.439 A  
HETATM   16  C   UNL     1     -12.793  11.516  71.691  1.00  0.00    -0.475 A  
HETATM   17  C   UNL     1     -13.330  12.502  72.527  1.00  0.00    -0.134 A  
HETATM   18  C   UNL     1     -13.228  13.832  72.175  1.00  0.00    -0.538 A  
HETATM   19  C   UNL     1     -12.585  14.165  70.990  1.00  0.00    -0.439 A  
HETATM   20  C   UNL     1     -12.018  13.178  70.153  1.00  0.00    -0.310 A  
HETATM   21  S   UNL     1     -11.220  13.831  68.715  1.00  0.00    -0.287 SA 
HETATM   22  C   UNL     1     -10.737  12.399  67.792  1.00  0.00    -0.221 A  
HETATM   23  C   UNL     1     -10.886  11.067  68.218  1.00  0.00    -0.261 A  
HETATM   24  C   UNL     1     -10.438  10.097  67.287  1.00  0.00    -0.313 A  
HETATM   25  C   UNL     1      -9.811  10.412  66.075  1.00  0.00    -0.232 A  
HETATM   26  C   UNL     1      -9.661  11.723  65.693  1.00  0.00    -0.256 A  
HETATM   27 CL   UNL     1      -9.201   9.149  65.073  1.00  0.00    -0.234 Cl 
HETATM   28  C   UNL     1     -10.141  12.711  66.540  1.00  0.00    -0.257 A  
ENDBRANCH  12  13
ENDBRANCH  11  12
ENDBRANCH   8  11
ENDBRANCH   4   5
ENDBRANCH   2   4
TORSDOF 5
ENDMDL
MODEL      110
REMARK 921   NORMALIZED FREE ENERGY PREDICTED BY IDOCK:   -4.68 KCAL/MOL
REMARK 922        TOTAL FREE ENERGY PREDICTED BY IDOCK:   -6.60 KCAL/MOL
REMARK 923 INTER-LIGAND FREE ENERGY PREDICTED BY IDOCK:   -6.09 KCAL/MOL
REMARK 924 INTRA-LIGAND FREE ENERGY PREDICTED BY IDOCK:   -0.51 KCAL/MOL
REMARK 927      BINDING AFFINITY PREDICTED BY RF-SCORE:    0.00 PKD
ROOT
HETATM    1  O   UNL     1     -13.514  12.169  64.363  1.00  0.00    -0.675 OA 
HETATM    2  C   UNL     1     -12.563  12.839  63.538  1.00  0.00    -0.258 C  
HETATM    3  H   UNL     1     -14.227  12.765  64.558  1.00  0.00     0.000 HD 
ENDROOT
BRANCH   2   4
HETATM    4  C   UNL     1     -11.414  11.878  63.223  1.00  0.00    -0.284 C  
BRANCH   4   5
HETATM    5  N   UNL     1     -10.079  12.308  63.687  1.00  0.00    -0.396 NA 
HETATM    6  C   UNL     1     -10.227  13.073  64.949  1.00  0.00    -0.284 C  
HETATM    7  C   UNL     1     -10.588  12.189  66.168  1.00  0.00    -0.255 C  
HETATM    8  N   UNL     1      -9.636  11.078  66.408  1.00  0.00    -0.193 NA 
HETATM    9  C   UNL     1      -9.500  10.307  65.157  1.00  0.00    -0.252 C  
HETATM   10  C   UNL     1      -9.153  11.177  63.926  1.00  0.00    -0.059 C  
BRANCH   8  11
HETATM   11  C   UNL     1      -8.317  11.538  66.893  1.00  0.00    -0.166 C  
BRANCH  11  12
HETATM   12  C   UNL     1      -7.719  10.478  67.822  1.00  0.00    -0.093 C  
BRANCH  12  13
HETATM   13  C   UNL     1      -8.622   9.817  68.811  1.00  0.00    -0.127 C  
HETATM   14  C   UNL     1      -9.161   8.564  68.791  1.00  0.00    -0.142 C  
HETATM   15  C   UNL     1     -10.079   8.228  69.967  1.00  0.00    -0.196 A  
HETATM   16  C   UNL     1     -10.174   9.036  71.126  1.00  0.00    -0.363 A  
HETATM   17  C   UNL     1     -11.049   8.751  72.182  1.00  0.00    -0.406 A  
HETATM   18  C   UNL     1     -11.839   7.621  72.133  1.00  0.00    -0.352 A  
HETATM   19  C   UNL     1     -11.750   6.787  71.027  1.00  0.00    -0.406 A  
HETATM   20  C   UNL     1     -10.888   7.081  69.946  1.00  0.00    -0.251 A  
HETATM   21  S   UNL     1     -10.962   5.900  68.631  1.00  0.00    -0.101 SA 
HETATM   22  C   UNL     1      -9.705   6.422  67.499  1.00  0.00    -0.121 A  
HETATM   23  C   UNL     1      -8.930   7.589  67.625  1.00  0.00    -0.127 A  
HETATM   24  C   UNL     1      -7.973   7.776  66.596  1.00  0.00    -0.107 A  
HETATM   25  C   UNL     1      -7.850   6.932  65.485  1.00  0.00    -0.112 A  
HETATM   26  C   UNL     1      -8.633   5.808  65.379  1.00  0.00    -0.143 A  
HETATM   27 CL   UNL     1      -6.729   7.321  64.235  1.00  0.00    -0.046 Cl 
HETATM   28  C   UNL     1      -9.543   5.546  66.393  1.00  0.00    -0.174 A  
ENDBRANCH  12  13
ENDBRANCH  11  12
ENDBRANCH   8  11
ENDBRANCH   4   5
ENDBRANCH   2   4
TORSDOF 5
ENDMDL
MODEL      111
REMARK 921   NORMALIZED FREE ENERGY PREDICTED BY IDOCK:   -4.68 KCAL/MOL
REMARK 922        TOTAL FREE ENERGY PREDICTED BY IDOCK:   -6.59 KCAL/MOL
REMARK 923 INTER-LIGAND FREE ENERGY PREDICTED BY IDOCK:   -6.05 KCAL/MOL
REMARK 924 INTRA-LIGAND FREE ENERGY PREDICTED BY IDOCK:   -0.55 KCAL/MOL
REMARK 927      BINDING AFFINITY PREDICTED BY RF-SCORE:    0.00 PKD
ROOT
HETATM    1  O   UNL     1      -9.444   5.010  68.560  1.00  0.00    -0.123 OA 
HETATM    2  C   UNL     1      -9.037   6.141  67.794  1.00  0.00    -0.117 C  
HETATM    3  H   UNL     1      -9.147   4.219  68.125  1.00  0.00     0.000 HD 
ENDROOT
BRANCH   2   4
HETATM    4  C   UNL     1      -9.515   7.414  68.495  1.00  0.00    -0.144 C  
BRANCH   4   5
HETATM    5  N   UNL     1      -8.448   8.305  68.994  1.00  0.00    -0.130 NA 
HETATM    6  C   UNL     1      -7.710   8.873  67.840  1.00  0.00    -0.101 C  
HETATM    7  C   UNL     1      -8.514   9.940  67.057  1.00  0.00    -0.121 C  
HETATM    8  N   UNL     1      -8.997  11.063  67.896  1.00  0.00    -0.140 NA 
HETATM    9  C   UNL     1      -9.744  10.500  69.037  1.00  0.00    -0.210 C  
HETATM   10  C   UNL     1      -8.961   9.422  69.822  1.00  0.00    -0.188 C  
BRANCH   8  11
HETATM   11  C   UNL     1      -7.910  11.950  68.361  1.00  0.00    -0.141 C  
BRANCH  11  12
HETATM   12  C   UNL     1      -7.589  12.976  67.270  1.00  0.00    -0.097 C  
BRANCH  12  13
HETATM   13  C   UNL     1      -7.670  14.426  67.619  1.00  0.00    -0.198 C  
HETATM   14  C   UNL     1      -8.570  15.366  67.210  1.00  0.00    -0.216 C  
HETATM   15  C   UNL     1      -8.329  16.778  67.746  1.00  0.00    -0.193 A  
HETATM   16  C   UNL     1      -7.413  17.061  68.789  1.00  0.00    -0.242 A  
HETATM   17  C   UNL     1      -7.160  18.360  69.247  1.00  0.00    -0.155 A  
HETATM   18  C   UNL     1      -7.847  19.425  68.703  1.00  0.00    -0.399 A  
HETATM   19  C   UNL     1      -8.778  19.184  67.702  1.00  0.00    -0.329 A  
HETATM   20  C   UNL     1      -9.020  17.879  67.216  1.00  0.00    -0.250 A  
HETATM   21  S   UNL     1     -10.220  17.811  65.918  1.00  0.00    -0.134 SA 
HETATM   22  C   UNL     1     -10.431  16.081  65.604  1.00  0.00    -0.397 A  
HETATM   23  C   UNL     1      -9.694  15.048  66.211  1.00  0.00    -0.316 A  
HETATM   24  C   UNL     1     -10.066  13.742  65.806  1.00  0.00    -0.322 A  
HETATM   25  C   UNL     1     -11.020  13.476  64.816  1.00  0.00    -0.373 A  
HETATM   26  C   UNL     1     -11.711  14.506  64.226  1.00  0.00    -0.312 A  
HETATM   27 CL   UNL     1     -11.309  11.851  64.320  1.00  0.00    -0.415 Cl 
HETATM   28  C   UNL     1     -11.430  15.802  64.634  1.00  0.00    -0.284 A  
ENDBRANCH  12  13
ENDBRANCH  11  12
ENDBRANCH   8  11
ENDBRANCH   4   5
ENDBRANCH   2   4
TORSDOF 5
ENDMDL
MODEL      112
REMARK 921   NORMALIZED FREE ENERGY PREDICTED BY IDOCK:   -4.67 KCAL/MOL
REMARK 922        TOTAL FREE ENERGY PREDICTED BY IDOCK:   -6.59 KCAL/MOL
REMARK 923 INTER-LIGAND FREE ENERGY PREDICTED BY IDOCK:   -6.06 KCAL/MOL
REMARK 924 INTRA-LIGAND FREE ENERGY PREDICTED BY IDOCK:   -0.54 KCAL/MOL
REMARK 927      BINDING AFFINITY PREDICTED BY RF-SCORE:    0.00 PKD
ROOT
HETATM    1  O   UNL     1     -11.417  16.646  63.850  1.00  0.00    -1.604 OA 
HETATM    2  C   UNL     1     -12.053  15.370  63.873  1.00  0.00     0.194 C  
HETATM    3  H   UNL     1     -11.984  17.265  63.406  1.00  0.00     0.000 HD 
ENDROOT
BRANCH   2   4
HETATM    4  C   UNL     1     -11.139  14.372  64.588  1.00  0.00    -0.354 C  
BRANCH   4   5
HETATM    5  N   UNL     1     -11.480  14.094  65.998  1.00  0.00    -0.334 NA 
HETATM    6  C   UNL     1     -11.996  12.708  66.109  1.00  0.00    -0.395 C  
HETATM    7  C   UNL     1     -10.901  11.626  65.948  1.00  0.00    -0.287 C  
HETATM    8  N   UNL     1      -9.767  11.775  66.893  1.00  0.00    -0.195 NA 
HETATM    9  C   UNL     1      -9.243  13.149  66.773  1.00  0.00    -0.230 C  
HETATM   10  C   UNL     1     -10.326  14.242  66.917  1.00  0.00    -0.268 C  
BRANCH   8  11
HETATM   11  C   UNL     1     -10.133  11.467  68.292  1.00  0.00    -0.199 C  
BRANCH  11  12
HETATM   12  C   UNL     1      -8.958  10.768  68.982  1.00  0.00    -0.141 C  
BRANCH  12  13
HETATM   13  C   UNL     1      -9.174   9.391  69.519  1.00  0.00    -0.182 C  
HETATM   14  C   UNL     1      -8.842   8.186  68.972  1.00  0.00    -0.144 C  
HETATM   15  C   UNL     1      -9.248   6.961  69.792  1.00  0.00    -0.147 A  
HETATM   16  C   UNL     1      -9.699   7.046  71.132  1.00  0.00    -0.173 A  
HETATM   17  C   UNL     1     -10.114   5.929  71.867  1.00  0.00    -0.222 A  
HETATM   18  C   UNL     1     -10.057   4.673  71.298  1.00  0.00    -0.245 A  
HETATM   19  C   UNL     1      -9.590   4.546  69.997  1.00  0.00    -0.267 A  
HETATM   20  C   UNL     1      -9.193   5.672  69.240  1.00  0.00    -0.116 A  
HETATM   21  S   UNL     1      -8.664   5.279  67.598  1.00  0.00    -0.105 SA 
HETATM   22  C   UNL     1      -8.099   6.822  66.937  1.00  0.00    -0.109 A  
HETATM   23  C   UNL     1      -8.183   8.066  67.588  1.00  0.00    -0.124 A  
HETATM   24  C   UNL     1      -7.641   9.152  66.856  1.00  0.00    -0.091 A  
HETATM   25  C   UNL     1      -7.140   9.040  65.553  1.00  0.00    -0.081 A  
HETATM   26  C   UNL     1      -7.088   7.815  64.934  1.00  0.00    -0.060 A  
HETATM   27 CL   UNL     1      -6.613  10.451  64.715  1.00  0.00    -0.089 Cl 
HETATM   28  C   UNL     1      -7.548   6.708  65.633  1.00  0.00    -0.086 A  
ENDBRANCH  12  13
ENDBRANCH  11  12
ENDBRANCH   8  11
ENDBRANCH   4   5
ENDBRANCH   2   4
TORSDOF 5
ENDMDL
MODEL      113
REMARK 921   NORMALIZED FREE ENERGY PREDICTED BY IDOCK:   -4.67 KCAL/MOL
REMARK 922        TOTAL FREE ENERGY PREDICTED BY IDOCK:   -6.58 KCAL/MOL
REMARK 923 INTER-LIGAND FREE ENERGY PREDICTED BY IDOCK:   -6.02 KCAL/MOL
REMARK 924 INTRA-LIGAND FREE ENERGY PREDICTED BY IDOCK:   -0.56 KCAL/MOL
REMARK 927      BINDING AFFINITY PREDICTED BY RF-SCORE:    0.00 PKD
ROOT
HETATM    1  O   UNL     1      -8.335   3.945  70.208  1.00  0.00    -0.059 OA 
HETATM    2  C   UNL     1      -9.715   4.296  70.149  1.00  0.00    -0.212 C  
HETATM    3  H   UNL     1      -8.094   3.504  69.402  1.00  0.00     0.000 HD 
ENDROOT
BRANCH   2   4
HETATM    4  C   UNL     1     -10.103   5.007  71.447  1.00  0.00    -0.199 C  
BRANCH   4   5
HETATM    5  N   UNL     1     -11.313   5.851  71.374  1.00  0.00    -0.228 NA 
HETATM    6  C   UNL     1     -11.276   6.850  72.469  1.00  0.00    -0.267 C  
HETATM    7  C   UNL     1     -10.233   7.973  72.246  1.00  0.00    -0.260 C  
HETATM    8  N   UNL     1     -10.396   8.698  70.963  1.00  0.00    -0.205 NA 
HETATM    9  C   UNL     1     -10.418   7.706  69.871  1.00  0.00    -0.231 C  
HETATM   10  C   UNL     1     -11.445   6.569  70.084  1.00  0.00    -0.415 C  
BRANCH   8  11
HETATM   11  C   UNL     1     -11.603   9.551  70.928  1.00  0.00    -0.326 C  
BRANCH  11  12
HETATM   12  C   UNL     1     -11.750  10.166  69.533  1.00  0.00    -0.128 C  
BRANCH  12  13
HETATM   13  C   UNL     1     -11.558  11.640  69.388  1.00  0.00    -0.392 C  
HETATM   14  C   UNL     1     -10.619  12.325  68.674  1.00  0.00    -0.249 C  
HETATM   15  C   UNL     1     -10.699  13.848  68.780  1.00  0.00    -0.278 A  
HETATM   16  C   UNL     1     -11.805  14.523  69.354  1.00  0.00    -0.367 A  
HETATM   17  C   UNL     1     -11.857  15.916  69.491  1.00  0.00    -0.310 A  
HETATM   18  C   UNL     1     -10.816  16.692  69.023  1.00  0.00    -0.314 A  
HETATM   19  C   UNL     1      -9.730  16.068  68.425  1.00  0.00    -0.213 A  
HETATM   20  C   UNL     1      -9.658  14.661  68.305  1.00  0.00    -0.208 A  
HETATM   21  S   UNL     1      -8.171  14.084  67.541  1.00  0.00    -0.195 SA 
HETATM   22  C   UNL     1      -8.404  12.335  67.390  1.00  0.00    -0.177 A  
HETATM   23  C   UNL     1      -9.505  11.615  67.888  1.00  0.00    -0.181 A  
HETATM   24  C   UNL     1      -9.468  10.223  67.620  1.00  0.00    -0.169 A  
HETATM   25  C   UNL     1      -8.394   9.579  66.995  1.00  0.00    -0.124 A  
HETATM   26  C   UNL     1      -7.323  10.305  66.535  1.00  0.00    -0.113 A  
HETATM   27 CL   UNL     1      -8.406   7.863  66.826  1.00  0.00    -0.118 Cl 
HETATM   28  C   UNL     1      -7.339  11.680  66.715  1.00  0.00    -0.083 A  
ENDBRANCH  12  13
ENDBRANCH  11  12
ENDBRANCH   8  11
ENDBRANCH   4   5
ENDBRANCH   2   4
TORSDOF 5
ENDMDL
MODEL      114
REMARK 921   NORMALIZED FREE ENERGY PREDICTED BY IDOCK:   -4.66 KCAL/MOL
REMARK 922        TOTAL FREE ENERGY PREDICTED BY IDOCK:   -6.57 KCAL/MOL
REMARK 923 INTER-LIGAND FREE ENERGY PREDICTED BY IDOCK:   -5.89 KCAL/MOL
REMARK 924 INTRA-LIGAND FREE ENERGY PREDICTED BY IDOCK:   -0.68 KCAL/MOL
REMARK 927      BINDING AFFINITY PREDICTED BY RF-SCORE:    0.00 PKD
ROOT
HETATM    1  O   UNL     1     -11.167   5.297  66.008  1.00  0.00    -0.780 OA 
HETATM    2  C   UNL     1      -9.958   4.577  65.780  1.00  0.00    -0.239 C  
HETATM    3  H   UNL     1     -11.902   4.702  65.919  1.00  0.00     0.000 HD 
ENDROOT
BRANCH   2   4
HETATM    4  C   UNL     1      -8.774   5.535  65.925  1.00  0.00    -0.145 C  
BRANCH   4   5
HETATM    5  N   UNL     1      -9.035   6.934  65.530  1.00  0.00     0.042 NA 
HETATM    6  C   UNL     1      -9.064   7.784  66.745  1.00  0.00    -0.154 C  
HETATM    7  C   UNL     1      -7.668   8.010  67.375  1.00  0.00    -0.102 C  
HETATM    8  N   UNL     1      -6.670   8.577  66.436  1.00  0.00    -0.069 NA 
HETATM    9  C   UNL     1      -6.629   7.723  65.233  1.00  0.00    -0.041 C  
HETATM   10  C   UNL     1      -8.018   7.476  64.599  1.00  0.00    -0.133 C  
BRANCH   8  11
HETATM   11  C   UNL     1      -6.945   9.985  66.077  1.00  0.00    -0.110 C  
BRANCH  11  12
HETATM   12  C   UNL     1      -7.241  10.785  67.349  1.00  0.00    -0.093 C  
BRANCH  12  13
HETATM   13  C   UNL     1      -7.893  12.121  67.206  1.00  0.00    -0.176 C  
HETATM   14  C   UNL     1      -9.029  12.598  67.792  1.00  0.00    -0.189 C  
HETATM   15  C   UNL     1      -9.427  14.017  67.387  1.00  0.00    -0.225 A  
HETATM   16  C   UNL     1      -8.568  14.883  66.667  1.00  0.00    -0.207 A  
HETATM   17  C   UNL     1      -8.951  16.166  66.258  1.00  0.00    -0.379 A  
HETATM   18  C   UNL     1     -10.201  16.648  66.588  1.00  0.00    -0.304 A  
HETATM   19  C   UNL     1     -11.060  15.840  67.321  1.00  0.00    -0.211 A  
HETATM   20  C   UNL     1     -10.690  14.535  67.716  1.00  0.00    -0.256 A  
HETATM   21  S   UNL     1     -11.951  13.675  68.612  1.00  0.00    -0.310 SA 
HETATM   22  C   UNL     1     -11.186  12.154  69.099  1.00  0.00    -0.244 A  
HETATM   23  C   UNL     1      -9.894  11.738  68.727  1.00  0.00    -0.100 A  
HETATM   24  C   UNL     1      -9.502  10.486  69.264  1.00  0.00    -0.191 A  
HETATM   25  C   UNL     1     -10.344   9.668  70.028  1.00  0.00    -0.257 A  
HETATM   26  C   UNL     1     -11.607  10.092  70.359  1.00  0.00    -0.396 A  
HETATM   27 CL   UNL     1      -9.799   8.111  70.530  1.00  0.00    -0.186 Cl 
HETATM   28  C   UNL     1     -12.018  11.339  69.912  1.00  0.00    -0.440 A  
ENDBRANCH  12  13
ENDBRANCH  11  12
ENDBRANCH   8  11
ENDBRANCH   4   5
ENDBRANCH   2   4
TORSDOF 5
ENDMDL
MODEL      115
REMARK 921   NORMALIZED FREE ENERGY PREDICTED BY IDOCK:   -4.61 KCAL/MOL
REMARK 922        TOTAL FREE ENERGY PREDICTED BY IDOCK:   -6.51 KCAL/MOL
REMARK 923 INTER-LIGAND FREE ENERGY PREDICTED BY IDOCK:   -5.94 KCAL/MOL
REMARK 924 INTRA-LIGAND FREE ENERGY PREDICTED BY IDOCK:   -0.56 KCAL/MOL
REMARK 927      BINDING AFFINITY PREDICTED BY RF-SCORE:    0.00 PKD
ROOT
HETATM    1  O   UNL     1     -11.193  16.362  63.795  1.00  0.00    -1.319 OA 
HETATM    2  C   UNL     1     -10.666  15.928  65.046  1.00  0.00    -0.404 C  
HETATM    3  H   UNL     1     -10.655  17.072  63.463  1.00  0.00     0.000 HD 
ENDROOT
BRANCH   2   4
HETATM    4  C   UNL     1     -11.532  14.785  65.580  1.00  0.00    -0.329 C  
BRANCH   4   5
HETATM    5  N   UNL     1     -11.588  13.578  64.731  1.00  0.00    -0.335 NA 
HETATM    6  C   UNL     1     -10.207  13.109  64.461  1.00  0.00    -0.311 C  
HETATM    7  C   UNL     1      -9.524  12.460  65.689  1.00  0.00    -0.036 C  
HETATM    8  N   UNL     1     -10.289  11.334  66.276  1.00  0.00    -0.239 NA 
HETATM    9  C   UNL     1     -11.659  11.803  66.559  1.00  0.00    -0.181 C  
HETATM   10  C   UNL     1     -12.352  12.467  65.346  1.00  0.00    -0.237 C  
BRANCH   8  11
HETATM   11  C   UNL     1     -10.308  10.133  65.414  1.00  0.00    -0.106 C  
BRANCH  11  12
HETATM   12  C   UNL     1      -9.833   8.921  66.221  1.00  0.00    -0.355 C  
BRANCH  12  13
HETATM   13  C   UNL     1     -10.252   8.816  67.650  1.00  0.00    -0.298 C  
HETATM   14  C   UNL     1      -9.546   9.098  68.783  1.00  0.00    -0.161 C  
HETATM   15  C   UNL     1     -10.287   8.841  70.096  1.00  0.00    -0.225 A  
HETATM   16  C   UNL     1     -11.678   8.581  70.157  1.00  0.00     0.192 A  
HETATM   17  C   UNL     1     -12.346   8.301  71.356  1.00  0.00    -0.326 A  
HETATM   18  C   UNL     1     -11.651   8.308  72.548  1.00  0.00    -0.454 A  
HETATM   19  C   UNL     1     -10.292   8.591  72.531  1.00  0.00    -0.315 A  
HETATM   20  C   UNL     1      -9.606   8.849  71.323  1.00  0.00    -0.278 A  
HETATM   21  S   UNL     1      -7.875   9.152  71.535  1.00  0.00     0.275 SA 
HETATM   22  C   UNL     1      -7.302   9.581  69.915  1.00  0.00    -0.103 A  
HETATM   23  C   UNL     1      -8.080   9.559  68.744  1.00  0.00    -0.096 A  
HETATM   24  C   UNL     1      -7.394   9.966  67.573  1.00  0.00    -0.090 A  
HETATM   25  C   UNL     1      -6.030  10.280  67.539  1.00  0.00    -0.053 A  
HETATM   26  C   UNL     1      -5.289  10.275  68.696  1.00  0.00    -0.038 A  
HETATM   27 CL   UNL     1      -5.273  10.650  66.035  1.00  0.00    -0.076 Cl 
HETATM   28  C   UNL     1      -5.929   9.946  69.882  1.00  0.00    -0.045 A  
ENDBRANCH  12  13
ENDBRANCH  11  12
ENDBRANCH   8  11
ENDBRANCH   4   5
ENDBRANCH   2   4
TORSDOF 5
ENDMDL
MODEL      116
REMARK 921   NORMALIZED FREE ENERGY PREDICTED BY IDOCK:   -4.58 KCAL/MOL
REMARK 922        TOTAL FREE ENERGY PREDICTED BY IDOCK:   -6.47 KCAL/MOL
REMARK 923 INTER-LIGAND FREE ENERGY PREDICTED BY IDOCK:   -6.17 KCAL/MOL
REMARK 924 INTRA-LIGAND FREE ENERGY PREDICTED BY IDOCK:   -0.30 KCAL/MOL
REMARK 927      BINDING AFFINITY PREDICTED BY RF-SCORE:    0.00 PKD
ROOT
HETATM    1  O   UNL     1     -13.279  14.175  71.909  1.00  0.00    -0.339 OA 
HETATM    2  C   UNL     1     -14.030  12.974  72.074  1.00  0.00    -0.109 C  
HETATM    3  H   UNL     1     -13.879  14.910  71.858  1.00  0.00     0.000 HD 
ENDROOT
BRANCH   2   4
HETATM    4  C   UNL     1     -13.064  11.791  72.157  1.00  0.00    -0.203 C  
BRANCH   4   5
HETATM    5  N   UNL     1     -13.253  10.742  71.134  1.00  0.00    -0.265 NA 
HETATM    6  C   UNL     1     -12.373  11.029  69.976  1.00  0.00    -0.305 C  
HETATM    7  C   UNL     1     -10.873  10.766  70.259  1.00  0.00     0.014 C  
HETATM    8  N   UNL     1     -10.584   9.390  70.732  1.00  0.00    -0.278 NA 
HETATM    9  C   UNL     1     -11.448   9.109  71.894  1.00  0.00    -0.353 C  
HETATM   10  C   UNL     1     -12.948   9.380  71.633  1.00  0.00    -0.391 C  
BRANCH   8  11
HETATM   11  C   UNL     1     -10.760   8.366  69.681  1.00  0.00    -0.198 C  
BRANCH  11  12
HETATM   12  C   UNL     1      -9.690   8.556  68.602  1.00  0.00    -0.171 C  
BRANCH  12  13
HETATM   13  C   UNL     1     -10.013   9.429  67.434  1.00  0.00    -0.252 C  
HETATM   14  C   UNL     1      -9.669   9.284  66.122  1.00  0.00    -0.349 C  
HETATM   15  C   UNL     1     -10.148  10.400  65.193  1.00  0.00    -0.379 A  
HETATM   16  C   UNL     1     -11.094  11.378  65.588  1.00  0.00    -0.207 A  
HETATM   17  C   UNL     1     -11.498  12.426  64.751  1.00  0.00    -0.375 A  
HETATM   18  C   UNL     1     -10.997  12.513  63.468  1.00  0.00    -0.472 A  
HETATM   19  C   UNL     1     -10.093  11.553  63.034  1.00  0.00    -0.330 A  
HETATM   20  C   UNL     1      -9.661  10.507  63.881  1.00  0.00    -0.309 A  
HETATM   21  S   UNL     1      -8.483   9.420  63.131  1.00  0.00    -0.214 SA 
HETATM   22  C   UNL     1      -8.228   8.148  64.336  1.00  0.00    -0.101 A  
HETATM   23  C   UNL     1      -8.787   8.126  65.627  1.00  0.00    -0.160 A  
HETATM   24  C   UNL     1      -8.447   6.986  66.397  1.00  0.00    -0.130 A  
HETATM   25  C   UNL     1      -7.557   5.994  65.968  1.00  0.00    -0.087 A  
HETATM   26  C   UNL     1      -7.011   6.051  64.708  1.00  0.00    -0.055 A  
HETATM   27 CL   UNL     1      -7.126   4.710  67.035  1.00  0.00    -0.070 Cl 
HETATM   28  C   UNL     1      -7.362   7.114  63.890  1.00  0.00    -0.088 A  
ENDBRANCH  12  13
ENDBRANCH  11  12
ENDBRANCH   8  11
ENDBRANCH   4   5
ENDBRANCH   2   4
TORSDOF 5
ENDMDL
MODEL      117
REMARK 921   NORMALIZED FREE ENERGY PREDICTED BY IDOCK:   -4.56 KCAL/MOL
REMARK 922        TOTAL FREE ENERGY PREDICTED BY IDOCK:   -6.44 KCAL/MOL
REMARK 923 INTER-LIGAND FREE ENERGY PREDICTED BY IDOCK:   -5.71 KCAL/MOL
REMARK 924 INTRA-LIGAND FREE ENERGY PREDICTED BY IDOCK:   -0.74 KCAL/MOL
REMARK 927      BINDING AFFINITY PREDICTED BY RF-SCORE:    0.00 PKD
ROOT
HETATM    1  O   UNL     1     -11.487  13.131  69.958  1.00  0.00    -0.499 OA 
HETATM    2  C   UNL     1     -12.605  13.073  70.839  1.00  0.00    -0.280 C  
HETATM    3  H   UNL     1     -11.496  13.965  69.501  1.00  0.00     0.000 HD 
ENDROOT
BRANCH   2   4
HETATM    4  C   UNL     1     -12.589  11.731  71.574  1.00  0.00    -0.215 C  
BRANCH   4   5
HETATM    5  N   UNL     1     -12.853  10.543  70.736  1.00  0.00    -0.374 NA 
HETATM    6  C   UNL     1     -11.599   9.768  70.583  1.00  0.00    -0.313 C  
HETATM    7  C   UNL     1     -11.176   9.017  71.870  1.00  0.00    -0.368 C  
HETATM    8  N   UNL     1     -12.220   8.109  72.405  1.00  0.00    -0.340 NA 
HETATM    9  C   UNL     1     -13.465   8.884  72.572  1.00  0.00    -0.412 C  
HETATM   10  C   UNL     1     -13.894   9.652  71.301  1.00  0.00    -0.076 C  
BRANCH   8  11
HETATM   11  C   UNL     1     -12.445   6.919  71.558  1.00  0.00    -0.375 C  
BRANCH  11  12
HETATM   12  C   UNL     1     -11.164   6.082  71.505  1.00  0.00    -0.326 C  
BRANCH  12  13
HETATM   13  C   UNL     1     -10.585   5.762  70.166  1.00  0.00    -0.377 C  
HETATM   14  C   UNL     1      -9.315   5.948  69.704  1.00  0.00    -0.162 C  
HETATM   15  C   UNL     1      -9.079   5.530  68.253  1.00  0.00    -0.113 A  
HETATM   16  C   UNL     1     -10.015   4.770  67.508  1.00  0.00    -0.194 A  
HETATM   17  C   UNL     1      -9.817   4.428  66.165  1.00  0.00    -0.243 A  
HETATM   18  C   UNL     1      -8.654   4.802  65.524  1.00  0.00    -0.131 A  
HETATM   19  C   UNL     1      -7.699   5.519  66.231  1.00  0.00    -0.099 A  
HETATM   20  C   UNL     1      -7.902   5.891  67.579  1.00  0.00    -0.098 A  
HETATM   21  S   UNL     1      -6.570   6.830  68.270  1.00  0.00    -0.064 SA 
HETATM   22  C   UNL     1      -7.011   7.032  69.973  1.00  0.00    -0.062 A  
HETATM   23  C   UNL     1      -8.220   6.611  70.556  1.00  0.00    -0.118 A  
HETATM   24  C   UNL     1      -8.326   6.871  71.945  1.00  0.00    -0.107 A  
HETATM   25  C   UNL     1      -7.363   7.571  72.682  1.00  0.00    -0.075 A  
HETATM   26  C   UNL     1      -6.199   7.987  72.082  1.00  0.00    -0.046 A  
HETATM   27 CL   UNL     1      -7.651   7.932  74.343  1.00  0.00    -0.208 Cl 
HETATM   28  C   UNL     1      -6.018   7.701  70.737  1.00  0.00    -0.034 A  
ENDBRANCH  12  13
ENDBRANCH  11  12
ENDBRANCH   8  11
ENDBRANCH   4   5
ENDBRANCH   2   4
TORSDOF 5
ENDMDL
MODEL      118
REMARK 921   NORMALIZED FREE ENERGY PREDICTED BY IDOCK:   -4.56 KCAL/MOL
REMARK 922        TOTAL FREE ENERGY PREDICTED BY IDOCK:   -6.44 KCAL/MOL
REMARK 923 INTER-LIGAND FREE ENERGY PREDICTED BY IDOCK:   -5.92 KCAL/MOL
REMARK 924 INTRA-LIGAND FREE ENERGY PREDICTED BY IDOCK:   -0.52 KCAL/MOL
REMARK 927      BINDING AFFINITY PREDICTED BY RF-SCORE:    0.00 PKD
ROOT
HETATM    1  O   UNL     1      -9.480   3.381  68.565  1.00  0.00    -0.175 OA 
HETATM    2  C   UNL     1      -9.626   3.703  67.184  1.00  0.00    -0.153 C  
HETATM    3  H   UNL     1      -9.513   2.437  68.667  1.00  0.00     0.000 HD 
ENDROOT
BRANCH   2   4
HETATM    4  C   UNL     1      -9.573   5.224  67.020  1.00  0.00    -0.142 C  
BRANCH   4   5
HETATM    5  N   UNL     1      -8.817   5.950  68.060  1.00  0.00    -0.110 NA 
HETATM    6  C   UNL     1      -7.722   6.717  67.419  1.00  0.00    -0.110 C  
HETATM    7  C   UNL     1      -8.214   7.954  66.627  1.00  0.00    -0.119 C  
HETATM    8  N   UNL     1      -9.030   8.895  67.432  1.00  0.00    -0.132 NA 
HETATM    9  C   UNL     1     -10.129   8.136  68.058  1.00  0.00    -0.197 C  
HETATM   10  C   UNL     1      -9.656   6.889  68.842  1.00  0.00    -0.139 C  
BRANCH   8  11
HETATM   11  C   UNL     1      -8.242   9.624  68.448  1.00  0.00    -0.106 C  
BRANCH  11  12
HETATM   12  C   UNL     1      -8.445  11.131  68.265  1.00  0.00    -0.145 C  
BRANCH  12  13
HETATM   13  C   UNL     1      -9.305  11.594  67.135  1.00  0.00    -0.178 C  
HETATM   14  C   UNL     1      -9.466  12.850  66.627  1.00  0.00    -0.255 C  
HETATM   15  C   UNL     1     -10.465  12.966  65.476  1.00  0.00    -0.305 A  
HETATM   16  C   UNL     1     -10.998  11.841  64.801  1.00  0.00    -0.360 A  
HETATM   17  C   UNL     1     -11.947  11.948  63.777  1.00  0.00    -0.547 A  
HETATM   18  C   UNL     1     -12.373  13.193  63.362  1.00  0.00    -0.443 A  
HETATM   19  C   UNL     1     -11.849  14.321  63.978  1.00  0.00    -0.267 A  
HETATM   20  C   UNL     1     -10.910  14.221  65.029  1.00  0.00    -0.403 A  
HETATM   21  S   UNL     1     -10.404  15.784  65.688  1.00  0.00    -0.409 SA 
HETATM   22  C   UNL     1      -9.144  15.379  66.865  1.00  0.00    -0.242 A  
HETATM   23  C   UNL     1      -8.758  14.075  67.227  1.00  0.00    -0.227 A  
HETATM   24  C   UNL     1      -7.709  14.015  68.179  1.00  0.00    -0.143 A  
HETATM   25  C   UNL     1      -7.149  15.142  68.793  1.00  0.00    -0.117 A  
HETATM   26  C   UNL     1      -7.560  16.403  68.433  1.00  0.00    -0.178 A  
HETATM   27 CL   UNL     1      -5.959  14.944  70.024  1.00  0.00    -0.133 Cl 
HETATM   28  C   UNL     1      -8.539  16.519  67.458  1.00  0.00    -0.188 A  
ENDBRANCH  12  13
ENDBRANCH  11  12
ENDBRANCH   8  11
ENDBRANCH   4   5
ENDBRANCH   2   4
TORSDOF 5
ENDMDL
MODEL      119
REMARK 921   NORMALIZED FREE ENERGY PREDICTED BY IDOCK:   -4.50 KCAL/MOL
REMARK 922        TOTAL FREE ENERGY PREDICTED BY IDOCK:   -6.37 KCAL/MOL
REMARK 923 INTER-LIGAND FREE ENERGY PREDICTED BY IDOCK:   -5.68 KCAL/MOL
REMARK 924 INTRA-LIGAND FREE ENERGY PREDICTED BY IDOCK:   -0.69 KCAL/MOL
REMARK 927      BINDING AFFINITY PREDICTED BY RF-SCORE:    0.00 PKD
ROOT
HETATM    1  O   UNL     1     -11.691   4.332  64.618  1.00  0.00    -0.821 OA 
HETATM    2  C   UNL     1     -10.385   4.135  64.083  1.00  0.00    -0.093 C  
HETATM    3  H   UNL     1     -12.243   4.723  63.951  1.00  0.00     0.000 HD 
ENDROOT
BRANCH   2   4
HETATM    4  C   UNL     1      -9.497   3.505  65.158  1.00  0.00    -0.158 C  
BRANCH   4   5
HETATM    5  N   UNL     1      -8.279   4.265  65.504  1.00  0.00    -0.108 NA 
HETATM    6  C   UNL     1      -8.608   5.710  65.561  1.00  0.00    -0.151 C  
HETATM    7  C   UNL     1      -9.450   6.103  66.800  1.00  0.00    -0.146 C  
HETATM    8  N   UNL     1      -8.833   5.717  68.092  1.00  0.00    -0.109 NA 
HETATM    9  C   UNL     1      -8.519   4.276  68.042  1.00  0.00    -0.094 C  
HETATM   10  C   UNL     1      -7.690   3.863  66.803  1.00  0.00    -0.088 C  
BRANCH   8  11
HETATM   11  C   UNL     1      -7.630   6.510  68.422  1.00  0.00    -0.104 C  
BRANCH  11  12
HETATM   12  C   UNL     1      -7.790   7.119  69.818  1.00  0.00    -0.118 C  
BRANCH  12  13
HETATM   13  C   UNL     1      -8.893   8.101  70.037  1.00  0.00    -0.139 C  
HETATM   14  C   UNL     1      -9.994   8.004  70.836  1.00  0.00    -0.207 C  
HETATM   15  C   UNL     1     -10.945   9.200  70.789  1.00  0.00    -0.332 A  
HETATM   16  C   UNL     1     -10.604  10.431  70.177  1.00  0.00    -0.245 A  
HETATM   17  C   UNL     1     -11.492  11.511  70.095  1.00  0.00    -0.258 A  
HETATM   18  C   UNL     1     -12.747  11.412  70.659  1.00  0.00    -0.282 A  
HETATM   19  C   UNL     1     -13.106  10.232  71.297  1.00  0.00    -0.492 A  
HETATM   20  C   UNL     1     -12.225   9.129  71.362  1.00  0.00    -0.335 A  
HETATM   21  S   UNL     1     -12.902   7.721  72.191  1.00  0.00    -0.101 SA 
HETATM   22  C   UNL     1     -11.564   6.562  72.254  1.00  0.00    -0.292 A  
HETATM   23  C   UNL     1     -10.303   6.742  71.659  1.00  0.00    -0.215 A  
HETATM   24  C   UNL     1      -9.394   5.675  71.870  1.00  0.00    -0.161 A  
HETATM   25  C   UNL     1      -9.728   4.488  72.533  1.00  0.00    -0.151 A  
HETATM   26  C   UNL     1     -10.974   4.331  73.088  1.00  0.00    -0.300 A  
HETATM   27 CL   UNL     1      -8.576   3.208  72.628  1.00  0.00    -0.084 Cl 
HETATM   28  C   UNL     1     -11.881   5.374  72.965  1.00  0.00    -0.096 A  
ENDBRANCH  12  13
ENDBRANCH  11  12
ENDBRANCH   8  11
ENDBRANCH   4   5
ENDBRANCH   2   4
TORSDOF 5
ENDMDL
MODEL      120
REMARK 921   NORMALIZED FREE ENERGY PREDICTED BY IDOCK:   -4.48 KCAL/MOL
REMARK 922        TOTAL FREE ENERGY PREDICTED BY IDOCK:   -6.34 KCAL/MOL
REMARK 923 INTER-LIGAND FREE ENERGY PREDICTED BY IDOCK:   -6.13 KCAL/MOL
REMARK 924 INTRA-LIGAND FREE ENERGY PREDICTED BY IDOCK:   -0.21 KCAL/MOL
REMARK 927      BINDING AFFINITY PREDICTED BY RF-SCORE:    0.00 PKD
ROOT
HETATM    1  O   UNL     1     -11.596  16.445  63.733  1.00  0.00    -1.605 OA 
HETATM    2  C   UNL     1     -11.787  15.288  64.543  1.00  0.00    -0.295 C  
HETATM    3  H   UNL     1     -11.321  17.167  64.286  1.00  0.00     0.000 HD 
ENDROOT
BRANCH   2   4
HETATM    4  C   UNL     1     -12.230  14.125  63.652  1.00  0.00    -0.005 C  
BRANCH   4   5
HETATM    5  N   UNL     1     -12.455  12.841  64.346  1.00  0.00    -0.594 NA 
HETATM    6  C   UNL     1     -12.055  11.729  63.451  1.00  0.00    -0.340 C  
HETATM    7  C   UNL     1     -10.522  11.597  63.275  1.00  0.00    -0.383 C  
HETATM    8  N   UNL     1      -9.782  11.454  64.552  1.00  0.00    -0.241 NA 
HETATM    9  C   UNL     1     -10.167  12.569  65.438  1.00  0.00    -0.283 C  
HETATM   10  C   UNL     1     -11.696  12.723  65.614  1.00  0.00    -0.399 C  
BRANCH   8  11
HETATM   11  C   UNL     1     -10.008  10.150  65.212  1.00  0.00    -0.311 C  
BRANCH  11  12
HETATM   12  C   UNL     1      -8.660   9.482  65.494  1.00  0.00    -0.163 C  
BRANCH  12  13
HETATM   13  C   UNL     1      -8.376   9.026  66.887  1.00  0.00    -0.119 C  
HETATM   14  C   UNL     1      -7.940   7.811  67.329  1.00  0.00    -0.118 C  
HETATM   15  C   UNL     1      -7.787   7.683  68.845  1.00  0.00    -0.123 A  
HETATM   16  C   UNL     1      -7.837   8.795  69.721  1.00  0.00    -0.090 A  
HETATM   17  C   UNL     1      -7.743   8.671  71.113  1.00  0.00    -0.131 A  
HETATM   18  C   UNL     1      -7.556   7.428  71.680  1.00  0.00    -0.085 A  
HETATM   19  C   UNL     1      -7.469   6.317  70.852  1.00  0.00    -0.088 A  
HETATM   20  C   UNL     1      -7.589   6.431  69.448  1.00  0.00    -0.095 A  
HETATM   21  S   UNL     1      -7.481   4.885  68.593  1.00  0.00    -0.070 SA 
HETATM   22  C   UNL     1      -7.516   5.327  66.879  1.00  0.00    -0.088 A  
HETATM   23  C   UNL     1      -7.701   6.628  66.377  1.00  0.00    -0.102 A  
HETATM   24  C   UNL     1      -7.669   6.724  64.963  1.00  0.00    -0.108 A  
HETATM   25  C   UNL     1      -7.556   5.620  64.110  1.00  0.00    -0.080 A  
HETATM   26  C   UNL     1      -7.395   4.358  64.628  1.00  0.00    -0.071 A  
HETATM   27 CL   UNL     1      -7.646   5.844  62.403  1.00  0.00    -0.063 Cl 
HETATM   28  C   UNL     1      -7.355   4.216  66.008  1.00  0.00    -0.080 A  
ENDBRANCH  12  13
ENDBRANCH  11  12
ENDBRANCH   8  11
ENDBRANCH   4   5
ENDBRANCH   2   4
TORSDOF 5
ENDMDL
MODEL      121
REMARK 921   NORMALIZED FREE ENERGY PREDICTED BY IDOCK:   -4.48 KCAL/MOL
REMARK 922        TOTAL FREE ENERGY PREDICTED BY IDOCK:   -6.34 KCAL/MOL
REMARK 923 INTER-LIGAND FREE ENERGY PREDICTED BY IDOCK:   -5.76 KCAL/MOL
REMARK 924 INTRA-LIGAND FREE ENERGY PREDICTED BY IDOCK:   -0.58 KCAL/MOL
REMARK 927      BINDING AFFINITY PREDICTED BY RF-SCORE:    0.00 PKD
ROOT
HETATM    1  O   UNL     1      -6.414   8.874  73.160  1.00  0.00    -0.292 OA 
HETATM    2  C   UNL     1      -6.908   7.877  74.051  1.00  0.00    -0.110 C  
HETATM    3  H   UNL     1      -5.468   8.799  73.107  1.00  0.00     0.000 HD 
ENDROOT
BRANCH   2   4
HETATM    4  C   UNL     1      -8.432   7.998  74.136  1.00  0.00    -0.233 C  
BRANCH   4   5
HETATM    5  N   UNL     1      -9.190   6.804  73.710  1.00  0.00    -0.152 NA 
HETATM    6  C   UNL     1     -10.611   7.176  73.508  1.00  0.00    -0.374 C  
HETATM    7  C   UNL     1     -10.851   8.030  72.239  1.00  0.00    -0.305 C  
HETATM    8  N   UNL     1     -10.355   7.403  70.991  1.00  0.00    -0.196 NA 
HETATM    9  C   UNL     1      -8.936   7.045  71.185  1.00  0.00    -0.146 C  
HETATM   10  C   UNL     1      -8.676   6.204  72.456  1.00  0.00    -0.121 C  
BRANCH   8  11
HETATM   11  C   UNL     1     -11.146   6.225  70.578  1.00  0.00    -0.335 C  
BRANCH  11  12
HETATM   12  C   UNL     1     -11.119   6.103  69.052  1.00  0.00    -0.437 C  
BRANCH  12  13
HETATM   13  C   UNL     1     -10.848   7.334  68.251  1.00  0.00    -0.114 C  
HETATM   14  C   UNL     1     -10.130   7.479  67.100  1.00  0.00    -0.317 C  
HETATM   15  C   UNL     1     -10.030   8.908  66.567  1.00  0.00    -0.358 A  
HETATM   16  C   UNL     1     -10.824   9.972  67.061  1.00  0.00    -0.196 A  
HETATM   17  C   UNL     1     -10.699  11.290  66.602  1.00  0.00    -0.321 A  
HETATM   18  C   UNL     1      -9.798  11.586  65.601  1.00  0.00    -0.269 A  
HETATM   19  C   UNL     1      -9.025  10.563  65.069  1.00  0.00    -0.223 A  
HETATM   20  C   UNL     1      -9.126   9.236  65.543  1.00  0.00    -0.221 A  
HETATM   21  S   UNL     1      -8.025   8.104  64.745  1.00  0.00    -0.150 SA 
HETATM   22  C   UNL     1      -8.456   6.523  65.415  1.00  0.00    -0.115 A  
HETATM   23  C   UNL     1      -9.399   6.301  66.435  1.00  0.00    -0.176 A  
HETATM   24  C   UNL     1      -9.580   4.939  66.783  1.00  0.00    -0.170 A  
HETATM   25  C   UNL     1      -8.829   3.890  66.240  1.00  0.00    -0.124 A  
HETATM   26  C   UNL     1      -7.901   4.139  65.259  1.00  0.00    -0.086 A  
HETATM   27 CL   UNL     1      -9.055   2.284  66.824  1.00  0.00    -0.130 Cl 
HETATM   28  C   UNL     1      -7.730   5.448  64.836  1.00  0.00    -0.088 A  
ENDBRANCH  12  13
ENDBRANCH  11  12
ENDBRANCH   8  11
ENDBRANCH   4   5
ENDBRANCH   2   4
TORSDOF 5
ENDMDL
MODEL      122
REMARK 921   NORMALIZED FREE ENERGY PREDICTED BY IDOCK:   -4.46 KCAL/MOL
REMARK 922        TOTAL FREE ENERGY PREDICTED BY IDOCK:   -6.31 KCAL/MOL
REMARK 923 INTER-LIGAND FREE ENERGY PREDICTED BY IDOCK:   -5.87 KCAL/MOL
REMARK 924 INTRA-LIGAND FREE ENERGY PREDICTED BY IDOCK:   -0.44 KCAL/MOL
REMARK 927      BINDING AFFINITY PREDICTED BY RF-SCORE:    0.00 PKD
ROOT
HETATM    1  O   UNL     1     -14.052  14.249  72.056  1.00  0.00    -0.450 OA 
HETATM    2  C   UNL     1     -13.533  12.934  72.238  1.00  0.00    -0.531 C  
HETATM    3  H   UNL     1     -14.651  14.446  72.767  1.00  0.00     0.000 HD 
ENDROOT
BRANCH   2   4
HETATM    4  C   UNL     1     -12.569  12.618  71.093  1.00  0.00    -0.258 C  
BRANCH   4   5
HETATM    5  N   UNL     1     -12.872  11.392  70.326  1.00  0.00    -0.021 NA 
HETATM    6  C   UNL     1     -11.910  11.270  69.204  1.00  0.00    -0.355 C  
HETATM    7  C   UNL     1     -10.481  10.878  69.655  1.00  0.00    -0.088 C  
HETATM    8  N   UNL     1     -10.425   9.628  70.451  1.00  0.00    -0.273 NA 
HETATM    9  C   UNL     1     -11.371   9.754  71.577  1.00  0.00    -0.275 C  
HETATM   10  C   UNL     1     -12.800  10.159  71.146  1.00  0.00    -0.399 C  
BRANCH   8  11
HETATM   11  C   UNL     1     -10.710   8.417  69.653  1.00  0.00    -0.198 C  
BRANCH  11  12
HETATM   12  C   UNL     1      -9.453   7.546  69.585  1.00  0.00    -0.156 C  
BRANCH  12  13
HETATM   13  C   UNL     1      -9.327   6.575  68.457  1.00  0.00    -0.123 C  
HETATM   14  C   UNL     1      -9.436   5.215  68.467  1.00  0.00    -0.175 C  
HETATM   15  C   UNL     1      -9.213   4.531  67.118  1.00  0.00    -0.148 A  
HETATM   16  C   UNL     1      -9.156   5.242  65.894  1.00  0.00    -0.159 A  
HETATM   17  C   UNL     1      -8.906   4.619  64.665  1.00  0.00    -0.153 A  
HETATM   18  C   UNL     1      -8.742   3.250  64.609  1.00  0.00    -0.103 A  
HETATM   19  C   UNL     1      -8.824   2.516  65.784  1.00  0.00    -0.131 A  
HETATM   20  C   UNL     1      -9.050   3.140  67.032  1.00  0.00    -0.175 A  
HETATM   21  S   UNL     1      -9.084   2.015  68.398  1.00  0.00    -0.180 SA 
HETATM   22  C   UNL     1      -9.518   3.023  69.788  1.00  0.00    -0.114 A  
HETATM   23  C   UNL     1      -9.679   4.421  69.760  1.00  0.00    -0.291 A  
HETATM   24  C   UNL     1     -10.049   4.995  71.002  1.00  0.00    -0.297 A  
HETATM   25  C   UNL     1     -10.163   4.268  72.194  1.00  0.00    -0.164 A  
HETATM   26  C   UNL     1      -9.982   2.906  72.194  1.00  0.00    -0.235 A  
HETATM   27 CL   UNL     1     -10.506   5.090  73.669  1.00  0.00    -0.259 Cl 
HETATM   28  C   UNL     1      -9.680   2.286  70.991  1.00  0.00    -0.157 A  
ENDBRANCH  12  13
ENDBRANCH  11  12
ENDBRANCH   8  11
ENDBRANCH   4   5
ENDBRANCH   2   4
TORSDOF 5
ENDMDL
MODEL      123
REMARK 921   NORMALIZED FREE ENERGY PREDICTED BY IDOCK:   -4.46 KCAL/MOL
REMARK 922        TOTAL FREE ENERGY PREDICTED BY IDOCK:   -6.31 KCAL/MOL
REMARK 923 INTER-LIGAND FREE ENERGY PREDICTED BY IDOCK:   -5.65 KCAL/MOL
REMARK 924 INTRA-LIGAND FREE ENERGY PREDICTED BY IDOCK:   -0.66 KCAL/MOL
REMARK 927      BINDING AFFINITY PREDICTED BY RF-SCORE:    0.00 PKD
ROOT
HETATM    1  O   UNL     1     -13.974   8.845  73.210  1.00  0.00    -1.203 OA 
HETATM    2  C   UNL     1     -13.773   9.795  72.165  1.00  0.00    -0.266 C  
HETATM    3  H   UNL     1     -14.823   9.000  73.609  1.00  0.00     0.000 HD 
ENDROOT
BRANCH   2   4
HETATM    4  C   UNL     1     -12.407   9.545  71.523  1.00  0.00    -0.380 C  
BRANCH   4   5
HETATM    5  N   UNL     1     -11.723   8.305  71.943  1.00  0.00    -0.299 NA 
HETATM    6  C   UNL     1     -11.770   7.324  70.832  1.00  0.00    -0.315 C  
HETATM    7  C   UNL     1     -10.834   7.681  69.652  1.00  0.00    -0.191 C  
HETATM    8  N   UNL     1      -9.416   7.867  70.046  1.00  0.00    -0.157 NA 
HETATM    9  C   UNL     1      -9.366   8.855  71.141  1.00  0.00    -0.257 C  
HETATM   10  C   UNL     1     -10.307   8.521  72.322  1.00  0.00    -0.332 C  
BRANCH   8  11
HETATM   11  C   UNL     1      -8.752   6.606  70.439  1.00  0.00    -0.151 C  
BRANCH  11  12
HETATM   12  C   UNL     1      -7.726   6.218  69.370  1.00  0.00    -0.100 C  
BRANCH  12  13
HETATM   13  C   UNL     1      -7.651   7.046  68.130  1.00  0.00    -0.108 C  
HETATM   14  C   UNL     1      -7.957   6.709  66.844  1.00  0.00    -0.109 C  
HETATM   15  C   UNL     1      -7.728   7.810  65.807  1.00  0.00    -0.099 A  
HETATM   16  C   UNL     1      -7.467   9.157  66.159  1.00  0.00    -0.095 A  
HETATM   17  C   UNL     1      -7.212  10.154  65.210  1.00  0.00    -0.141 A  
HETATM   18  C   UNL     1      -7.245   9.847  63.865  1.00  0.00    -0.126 A  
HETATM   19  C   UNL     1      -7.529   8.544  63.481  1.00  0.00    -0.112 A  
HETATM   20  C   UNL     1      -7.762   7.526  64.433  1.00  0.00    -0.124 A  
HETATM   21  S   UNL     1      -8.071   5.937  63.720  1.00  0.00    -0.056 SA 
HETATM   22  C   UNL     1      -8.466   4.903  65.102  1.00  0.00    -0.139 A  
HETATM   23  C   UNL     1      -8.419   5.296  66.452  1.00  0.00    -0.113 A  
HETATM   24  C   UNL     1      -8.802   4.289  67.372  1.00  0.00    -0.120 A  
HETATM   25  C   UNL     1      -9.117   2.975  67.003  1.00  0.00    -0.173 A  
HETATM   26  C   UNL     1      -9.137   2.615  65.678  1.00  0.00    -0.121 A  
HETATM   27 CL   UNL     1      -9.456   1.802  68.220  1.00  0.00    -0.247 Cl 
HETATM   28  C   UNL     1      -8.832   3.581  64.731  1.00  0.00    -0.120 A  
ENDBRANCH  12  13
ENDBRANCH  11  12
ENDBRANCH   8  11
ENDBRANCH   4   5
ENDBRANCH   2   4
TORSDOF 5
ENDMDL
MODEL      124
REMARK 921   NORMALIZED FREE ENERGY PREDICTED BY IDOCK:   -4.44 KCAL/MOL
REMARK 922        TOTAL FREE ENERGY PREDICTED BY IDOCK:   -6.29 KCAL/MOL
REMARK 923 INTER-LIGAND FREE ENERGY PREDICTED BY IDOCK:   -6.19 KCAL/MOL
REMARK 924 INTRA-LIGAND FREE ENERGY PREDICTED BY IDOCK:   -0.10 KCAL/MOL
REMARK 927      BINDING AFFINITY PREDICTED BY RF-SCORE:    0.00 PKD
ROOT
HETATM    1  O   UNL     1     -12.908  11.377  62.747  1.00  0.00    -0.860 OA 
HETATM    2  C   UNL     1     -11.839  12.094  63.360  1.00  0.00    -0.461 C  
HETATM    3  H   UNL     1     -13.587  11.992  62.495  1.00  0.00     0.000 HD 
ENDROOT
BRANCH   2   4
HETATM    4  C   UNL     1     -10.745  11.104  63.766  1.00  0.00    -0.329 C  
BRANCH   4   5
HETATM    5  N   UNL     1     -10.733  10.720  65.193  1.00  0.00    -0.162 NA 
HETATM    6  C   UNL     1      -9.433  10.083  65.513  1.00  0.00    -0.237 C  
HETATM    7  C   UNL     1      -8.251  11.082  65.563  1.00  0.00     0.018 C  
HETATM    8  N   UNL     1      -8.458  12.210  66.503  1.00  0.00    -0.091 NA 
HETATM    9  C   UNL     1      -9.745  12.854  66.176  1.00  0.00    -0.248 C  
HETATM   10  C   UNL     1     -10.934  11.868  66.107  1.00  0.00    -0.308 C  
BRANCH   8  11
HETATM   11  C   UNL     1      -8.418  11.798  67.922  1.00  0.00    -0.154 C  
BRANCH  11  12
HETATM   12  C   UNL     1      -7.615  12.825  68.727  1.00  0.00    -0.025 C  
BRANCH  12  13
HETATM   13  C   UNL     1      -7.312  14.140  68.088  1.00  0.00    -0.130 C  
HETATM   14  C   UNL     1      -8.101  15.246  67.963  1.00  0.00    -0.141 C  
HETATM   15  C   UNL     1      -7.470  16.418  67.212  1.00  0.00    -0.202 A  
HETATM   16  C   UNL     1      -6.091  16.475  66.890  1.00  0.00    -0.116 A  
HETATM   17  C   UNL     1      -5.523  17.528  66.162  1.00  0.00    -0.218 A  
HETATM   18  C   UNL     1      -6.310  18.588  65.760  1.00  0.00    -0.291 A  
HETATM   19  C   UNL     1      -7.660  18.584  66.085  1.00  0.00    -0.273 A  
HETATM   20  C   UNL     1      -8.246  17.513  66.797  1.00  0.00    -0.244 A  
HETATM   21  S   UNL     1      -9.983  17.702  67.071  1.00  0.00    -0.335 SA 
HETATM   22  C   UNL     1     -10.422  16.320  68.088  1.00  0.00    -0.289 A  
HETATM   23  C   UNL     1      -9.553  15.280  68.465  1.00  0.00    -0.211 A  
HETATM   24  C   UNL     1     -10.140  14.297  69.302  1.00  0.00     0.014 A  
HETATM   25  C   UNL     1     -11.493  14.289  69.663  1.00  0.00    -0.282 A  
HETATM   26  C   UNL     1     -12.322  15.308  69.264  1.00  0.00    -0.128 A  
HETATM   27 CL   UNL     1     -12.123  12.979  70.590  1.00  0.00    -0.400 Cl 
HETATM   28  C   UNL     1     -11.782  16.329  68.496  1.00  0.00    -0.083 A  
ENDBRANCH  12  13
ENDBRANCH  11  12
ENDBRANCH   8  11
ENDBRANCH   4   5
ENDBRANCH   2   4
TORSDOF 5
ENDMDL
MODEL      125
REMARK 921   NORMALIZED FREE ENERGY PREDICTED BY IDOCK:   -4.42 KCAL/MOL
REMARK 922        TOTAL FREE ENERGY PREDICTED BY IDOCK:   -6.27 KCAL/MOL
REMARK 923 INTER-LIGAND FREE ENERGY PREDICTED BY IDOCK:   -6.14 KCAL/MOL
REMARK 924 INTRA-LIGAND FREE ENERGY PREDICTED BY IDOCK:   -0.13 KCAL/MOL
REMARK 927      BINDING AFFINITY PREDICTED BY RF-SCORE:    0.00 PKD
ROOT
HETATM    1  O   UNL     1      -6.006  13.472  71.808  1.00  0.00    -0.557 OA 
HETATM    2  C   UNL     1      -5.755  12.949  70.506  1.00  0.00    -0.171 C  
HETATM    3  H   UNL     1      -5.919  12.771  72.444  1.00  0.00     0.000 HD 
ENDROOT
BRANCH   2   4
HETATM    4  C   UNL     1      -5.895  14.078  69.482  1.00  0.00    -0.097 C  
BRANCH   4   5
HETATM    5  N   UNL     1      -6.173  13.649  68.096  1.00  0.00    -0.103 NA 
HETATM    6  C   UNL     1      -6.392  12.183  68.076  1.00  0.00    -0.068 C  
HETATM    7  C   UNL     1      -7.745  11.752  68.695  1.00  0.00    -0.126 C  
HETATM    8  N   UNL     1      -8.923  12.405  68.077  1.00  0.00    -0.188 NA 
HETATM    9  C   UNL     1      -8.713  13.866  68.110  1.00  0.00    -0.182 C  
HETATM   10  C   UNL     1      -7.361  14.313  67.508  1.00  0.00    -0.179 C  
BRANCH   8  11
HETATM   11  C   UNL     1      -9.190  11.940  66.699  1.00  0.00    -0.205 C  
BRANCH  11  12
HETATM   12  C   UNL     1     -10.442  11.059  66.694  1.00  0.00    -0.307 C  
BRANCH  12  13
HETATM   13  C   UNL     1     -11.017  10.642  68.008  1.00  0.00    -0.336 C  
HETATM   14  C   UNL     1     -10.941   9.437  68.644  1.00  0.00    -0.075 C  
HETATM   15  C   UNL     1     -11.685   9.354  69.977  1.00  0.00     0.028 A  
HETATM   16  C   UNL     1     -12.200  10.492  70.645  1.00  0.00    -0.446 A  
HETATM   17  C   UNL     1     -12.921  10.408  71.843  1.00  0.00    -0.555 A  
HETATM   18  C   UNL     1     -13.122   9.181  72.439  1.00  0.00    -0.493 A  
HETATM   19  C   UNL     1     -12.604   8.046  71.831  1.00  0.00    -0.359 A  
HETATM   20  C   UNL     1     -11.897   8.118  70.609  1.00  0.00    -0.088 A  
HETATM   21  S   UNL     1     -11.357   6.547  70.001  1.00  0.00    -0.410 SA 
HETATM   22  C   UNL     1     -10.395   6.937  68.566  1.00  0.00    -0.186 A  
HETATM   23  C   UNL     1     -10.229   8.224  68.023  1.00  0.00    -0.265 A  
HETATM   24  C   UNL     1      -9.393   8.278  66.880  1.00  0.00    -0.222 A  
HETATM   25  C   UNL     1      -8.839   7.147  66.267  1.00  0.00    -0.148 A  
HETATM   26  C   UNL     1      -9.034   5.900  66.809  1.00  0.00    -0.120 A  
HETATM   27 CL   UNL     1      -7.932   7.321  64.811  1.00  0.00    -0.126 Cl 
HETATM   28  C   UNL     1      -9.793   5.800  67.965  1.00  0.00    -0.155 A  
ENDBRANCH  12  13
ENDBRANCH  11  12
ENDBRANCH   8  11
ENDBRANCH   4   5
ENDBRANCH   2   4
TORSDOF 5
ENDMDL
MODEL      126
REMARK 921   NORMALIZED FREE ENERGY PREDICTED BY IDOCK:   -4.42 KCAL/MOL
REMARK 922        TOTAL FREE ENERGY PREDICTED BY IDOCK:   -6.26 KCAL/MOL
REMARK 923 INTER-LIGAND FREE ENERGY PREDICTED BY IDOCK:   -5.74 KCAL/MOL
REMARK 924 INTRA-LIGAND FREE ENERGY PREDICTED BY IDOCK:   -0.52 KCAL/MOL
REMARK 927      BINDING AFFINITY PREDICTED BY RF-SCORE:    0.00 PKD
ROOT
HETATM    1  O   UNL     1     -13.362   6.840  72.155  1.00  0.00    -0.546 OA 
HETATM    2  C   UNL     1     -11.989   6.763  71.780  1.00  0.00    -0.339 C  
HETATM    3  H   UNL     1     -13.549   6.151  72.783  1.00  0.00     0.000 HD 
ENDROOT
BRANCH   2   4
HETATM    4  C   UNL     1     -11.687   7.872  70.770  1.00  0.00    -0.218 C  
BRANCH   4   5
HETATM    5  N   UNL     1     -11.241   9.156  71.348  1.00  0.00    -0.320 NA 
HETATM    6  C   UNL     1     -10.242   9.775  70.444  1.00  0.00    -0.281 C  
HETATM    7  C   UNL     1     -10.856  10.343  69.141  1.00  0.00    -0.236 C  
HETATM    8  N   UNL     1     -11.944  11.324  69.368  1.00  0.00    -0.333 NA 
HETATM    9  C   UNL     1     -12.947  10.704  70.256  1.00  0.00    -0.068 C  
HETATM   10  C   UNL     1     -12.349  10.118  71.556  1.00  0.00    -0.408 C  
BRANCH   8  11
HETATM   11  C   UNL     1     -11.464  12.606  69.926  1.00  0.00    -0.081 C  
BRANCH  11  12
HETATM   12  C   UNL     1     -10.461  13.238  68.956  1.00  0.00    -0.044 C  
BRANCH  12  13
HETATM   13  C   UNL     1     -10.404  14.728  68.873  1.00  0.00    -0.243 C  
HETATM   14  C   UNL     1     -10.722  15.551  67.832  1.00  0.00    -0.294 C  
HETATM   15  C   UNL     1     -10.508  17.042  68.089  1.00  0.00    -0.357 A  
HETATM   16  C   UNL     1     -10.250  17.573  69.376  1.00  0.00    -0.089 A  
HETATM   17  C   UNL     1     -10.009  18.934  69.603  1.00  0.00     0.288 A  
HETATM   18  C   UNL     1     -10.055  19.825  68.550  1.00  0.00    -0.555 A  
HETATM   19  C   UNL     1     -10.337  19.346  67.278  1.00  0.00    -0.554 A  
HETATM   20  C   UNL     1     -10.556  17.971  67.037  1.00  0.00    -0.308 A  
HETATM   21  S   UNL     1     -10.865  17.583  65.338  1.00  0.00     0.333 SA 
HETATM   22  C   UNL     1     -11.241  15.852  65.343  1.00  0.00    -0.100 A  
HETATM   23  C   UNL     1     -11.181  15.010  66.468  1.00  0.00    -0.312 A  
HETATM   24  C   UNL     1     -11.550  13.665  66.217  1.00  0.00    -0.372 A  
HETATM   25  C   UNL     1     -11.863  13.168  64.946  1.00  0.00    -0.358 A  
HETATM   26  C   UNL     1     -11.895  14.010  63.861  1.00  0.00    -0.263 A  
HETATM   27 CL   UNL     1     -12.183  11.486  64.739  1.00  0.00     0.226 Cl 
HETATM   28  C   UNL     1     -11.604  15.351  64.065  1.00  0.00     0.097 A  
ENDBRANCH  12  13
ENDBRANCH  11  12
ENDBRANCH   8  11
ENDBRANCH   4   5
ENDBRANCH   2   4
TORSDOF 5
ENDMDL
MODEL      127
REMARK 921   NORMALIZED FREE ENERGY PREDICTED BY IDOCK:   -4.39 KCAL/MOL
REMARK 922        TOTAL FREE ENERGY PREDICTED BY IDOCK:   -6.22 KCAL/MOL
REMARK 923 INTER-LIGAND FREE ENERGY PREDICTED BY IDOCK:   -5.95 KCAL/MOL
REMARK 924 INTRA-LIGAND FREE ENERGY PREDICTED BY IDOCK:   -0.27 KCAL/MOL
REMARK 927      BINDING AFFINITY PREDICTED BY RF-SCORE:    0.00 PKD
ROOT
HETATM    1  O   UNL     1     -12.683  11.462  62.856  1.00  0.00    -0.951 OA 
HETATM    2  C   UNL     1     -12.247  12.752  63.279  1.00  0.00    -0.410 C  
HETATM    3  H   UNL     1     -12.515  11.369  61.925  1.00  0.00     0.000 HD 
ENDROOT
BRANCH   2   4
HETATM    4  C   UNL     1     -12.517  12.901  64.778  1.00  0.00    -0.455 C  
BRANCH   4   5
HETATM    5  N   UNL     1     -11.326  13.132  65.619  1.00  0.00    -0.298 NA 
HETATM    6  C   UNL     1     -11.713  13.036  67.047  1.00  0.00    -0.383 C  
HETATM    7  C   UNL     1     -12.010  11.588  67.511  1.00  0.00     0.086 C  
HETATM    8  N   UNL     1     -10.895  10.640  67.268  1.00  0.00    -0.286 NA 
HETATM    9  C   UNL     1     -10.519  10.724  65.843  1.00  0.00    -0.204 C  
HETATM   10  C   UNL     1     -10.233  12.165  65.360  1.00  0.00    -0.270 C  
BRANCH   8  11
HETATM   11  C   UNL     1      -9.727  10.882  68.140  1.00  0.00    -0.166 C  
BRANCH  11  12
HETATM   12  C   UNL     1     -10.184  10.930  69.601  1.00  0.00    -0.021 C  
BRANCH  12  13
HETATM   13  C   UNL     1     -10.423   9.637  70.308  1.00  0.00    -0.338 C  
HETATM   14  C   UNL     1      -9.523   8.730  70.784  1.00  0.00    -0.253 C  
HETATM   15  C   UNL     1     -10.129   7.485  71.433  1.00  0.00    -0.201 A  
HETATM   16  C   UNL     1     -11.504   7.378  71.760  1.00  0.00    -0.297 A  
HETATM   17  C   UNL     1     -12.066   6.220  72.312  1.00  0.00    -0.255 A  
HETATM   18  C   UNL     1     -11.263   5.135  72.594  1.00  0.00    -0.277 A  
HETATM   19  C   UNL     1      -9.905   5.214  72.318  1.00  0.00    -0.216 A  
HETATM   20  C   UNL     1      -9.334   6.369  71.738  1.00  0.00    -0.150 A  
HETATM   21  S   UNL     1      -7.594   6.237  71.443  1.00  0.00    -0.100 SA 
HETATM   22  C   UNL     1      -7.123   7.841  70.859  1.00  0.00    -0.053 A  
HETATM   23  C   UNL     1      -8.007   8.905  70.604  1.00  0.00    -0.142 A  
HETATM   24  C   UNL     1      -7.380  10.097  70.161  1.00  0.00    -0.157 A  
HETATM   25  C   UNL     1      -6.008  10.205  69.901  1.00  0.00    -0.052 A  
HETATM   26  C   UNL     1      -5.172   9.143  70.142  1.00  0.00    -0.028 A  
HETATM   27 CL   UNL     1      -5.373  11.671  69.253  1.00  0.00    -0.048 Cl 
HETATM   28  C   UNL     1      -5.726   7.972  70.637  1.00  0.00    -0.029 A  
ENDBRANCH  12  13
ENDBRANCH  11  12
ENDBRANCH   8  11
ENDBRANCH   4   5
ENDBRANCH   2   4
TORSDOF 5
ENDMDL
MODEL      128
REMARK 921   NORMALIZED FREE ENERGY PREDICTED BY IDOCK:   -4.35 KCAL/MOL
REMARK 922        TOTAL FREE ENERGY PREDICTED BY IDOCK:   -6.17 KCAL/MOL
REMARK 923 INTER-LIGAND FREE ENERGY PREDICTED BY IDOCK:   -5.51 KCAL/MOL
REMARK 924 INTRA-LIGAND FREE ENERGY PREDICTED BY IDOCK:   -0.66 KCAL/MOL
REMARK 927      BINDING AFFINITY PREDICTED BY RF-SCORE:    0.00 PKD
ROOT
HETATM    1  O   UNL     1     -10.171  19.440  67.562  1.00  0.00    -0.371 OA 
HETATM    2  C   UNL     1      -9.871  18.133  68.047  1.00  0.00    -0.325 C  
HETATM    3  H   UNL     1      -9.787  20.082  68.147  1.00  0.00     0.000 HD 
ENDROOT
BRANCH   2   4
HETATM    4  C   UNL     1     -10.489  17.098  67.104  1.00  0.00    -0.291 C  
BRANCH   4   5
HETATM    5  N   UNL     1     -10.916  15.835  67.738  1.00  0.00    -0.316 NA 
HETATM    6  C   UNL     1     -11.907  15.162  66.864  1.00  0.00     0.004 C  
HETATM    7  C   UNL     1     -11.286  14.547  65.585  1.00  0.00    -0.335 C  
HETATM    8  N   UNL     1     -10.182  13.594  65.853  1.00  0.00    -0.304 NA 
HETATM    9  C   UNL     1      -9.188  14.267  66.711  1.00  0.00    -0.264 C  
HETATM   10  C   UNL     1      -9.793  14.899  67.986  1.00  0.00    -0.216 C  
BRANCH   8  11
HETATM   11  C   UNL     1     -10.642  12.330  66.467  1.00  0.00    -0.234 C  
BRANCH  11  12
HETATM   12  C   UNL     1      -9.550  11.266  66.320  1.00  0.00    -0.235 C  
BRANCH  12  13
HETATM   13  C   UNL     1      -9.735   9.963  67.025  1.00  0.00    -0.230 C  
HETATM   14  C   UNL     1      -9.117   9.488  68.145  1.00  0.00    -0.128 C  
HETATM   15  C   UNL     1      -9.533   8.081  68.574  1.00  0.00    -0.143 A  
HETATM   16  C   UNL     1     -10.653   7.408  68.027  1.00  0.00    -0.235 A  
HETATM   17  C   UNL     1     -11.006   6.101  68.389  1.00  0.00    -0.391 A  
HETATM   18  C   UNL     1     -10.270   5.431  69.344  1.00  0.00    -0.334 A  
HETATM   19  C   UNL     1      -9.184   6.070  69.927  1.00  0.00    -0.159 A  
HETATM   20  C   UNL     1      -8.806   7.379  69.549  1.00  0.00    -0.137 A  
HETATM   21  S   UNL     1      -7.375   7.983  70.396  1.00  0.00    -0.064 SA 
HETATM   22  C   UNL     1      -7.214   9.659  69.849  1.00  0.00    -0.106 A  
HETATM   23  C   UNL     1      -8.016  10.277  68.872  1.00  0.00    -0.113 A  
HETATM   24  C   UNL     1      -7.700  11.636  68.624  1.00  0.00    -0.134 A  
HETATM   25  C   UNL     1      -6.626  12.307  69.221  1.00  0.00    -0.099 A  
HETATM   26  C   UNL     1      -5.847  11.673  70.158  1.00  0.00    -0.153 A  
HETATM   27 CL   UNL     1      -6.264  13.928  68.756  1.00  0.00    -0.083 Cl 
HETATM   28  C   UNL     1      -6.154  10.360  70.484  1.00  0.00    -0.116 A  
ENDBRANCH  12  13
ENDBRANCH  11  12
ENDBRANCH   8  11
ENDBRANCH   4   5
ENDBRANCH   2   4
TORSDOF 5
ENDMDL
MODEL      129
REMARK 921   NORMALIZED FREE ENERGY PREDICTED BY IDOCK:   -4.35 KCAL/MOL
REMARK 922        TOTAL FREE ENERGY PREDICTED BY IDOCK:   -6.17 KCAL/MOL
REMARK 923 INTER-LIGAND FREE ENERGY PREDICTED BY IDOCK:   -5.75 KCAL/MOL
REMARK 924 INTRA-LIGAND FREE ENERGY PREDICTED BY IDOCK:   -0.42 KCAL/MOL
REMARK 927      BINDING AFFINITY PREDICTED BY RF-SCORE:    0.00 PKD
ROOT
HETATM    1  O   UNL     1      -7.607  21.359  67.085  1.00  0.00    -0.789 OA 
HETATM    2  C   UNL     1      -8.725  20.530  66.776  1.00  0.00    -0.121 C  
HETATM    3  H   UNL     1      -7.720  22.200  66.659  1.00  0.00     0.000 HD 
ENDROOT
BRANCH   2   4
HETATM    4  C   UNL     1      -8.544  19.174  67.463  1.00  0.00    -0.288 C  
BRANCH   4   5
HETATM    5  N   UNL     1      -8.452  18.010  66.559  1.00  0.00    -0.271 NA 
HETATM    6  C   UNL     1      -7.067  17.482  66.586  1.00  0.00    -0.233 C  
HETATM    7  C   UNL     1      -6.711  16.745  67.901  1.00  0.00    -0.141 C  
HETATM    8  N   UNL     1      -7.635  15.636  68.236  1.00  0.00    -0.117 NA 
HETATM    9  C   UNL     1      -9.014  16.163  68.225  1.00  0.00    -0.189 C  
HETATM   10  C   UNL     1      -9.382  16.914  66.925  1.00  0.00    -0.241 C  
BRANCH   8  11
HETATM   11  C   UNL     1      -7.505  14.476  67.329  1.00  0.00    -0.097 C  
BRANCH  11  12
HETATM   12  C   UNL     1      -8.651  13.495  67.590  1.00  0.00    -0.185 C  
BRANCH  12  13
HETATM   13  C   UNL     1      -8.349  12.032  67.558  1.00  0.00    -0.166 C  
HETATM   14  C   UNL     1      -9.038  10.992  68.108  1.00  0.00    -0.155 C  
HETATM   15  C   UNL     1      -8.414   9.612  67.903  1.00  0.00    -0.122 A  
HETATM   16  C   UNL     1      -7.349   9.374  67.001  1.00  0.00    -0.087 A  
HETATM   17  C   UNL     1      -6.748   8.119  66.848  1.00  0.00    -0.065 A  
HETATM   18  C   UNL     1      -7.217   7.040  67.568  1.00  0.00    -0.090 A  
HETATM   19  C   UNL     1      -8.282   7.227  68.439  1.00  0.00    -0.125 A  
HETATM   20  C   UNL     1      -8.877   8.496  68.619  1.00  0.00    -0.136 A  
HETATM   21  S   UNL     1     -10.194   8.508  69.801  1.00  0.00    -0.211 SA 
HETATM   22  C   UNL     1     -10.841  10.155  69.722  1.00  0.00    -0.279 A  
HETATM   23  C   UNL     1     -10.308  11.202  68.949  1.00  0.00    -0.220 A  
HETATM   24  C   UNL     1     -11.021  12.424  69.042  1.00  0.00    -0.247 A  
HETATM   25  C   UNL     1     -12.113  12.626  69.895  1.00  0.00    -0.252 A  
HETATM   26  C   UNL     1     -12.600  11.589  70.653  1.00  0.00    -0.337 A  
HETATM   27 CL   UNL     1     -12.830  14.189  70.013  1.00  0.00    -0.159 Cl 
HETATM   28  C   UNL     1     -11.978  10.354  70.550  1.00  0.00    -0.427 A  
ENDBRANCH  12  13
ENDBRANCH  11  12
ENDBRANCH   8  11
ENDBRANCH   4   5
ENDBRANCH   2   4
TORSDOF 5
ENDMDL
MODEL      130
REMARK 921   NORMALIZED FREE ENERGY PREDICTED BY IDOCK:   -4.34 KCAL/MOL
REMARK 922        TOTAL FREE ENERGY PREDICTED BY IDOCK:   -6.15 KCAL/MOL
REMARK 923 INTER-LIGAND FREE ENERGY PREDICTED BY IDOCK:   -5.59 KCAL/MOL
REMARK 924 INTRA-LIGAND FREE ENERGY PREDICTED BY IDOCK:   -0.57 KCAL/MOL
REMARK 927      BINDING AFFINITY PREDICTED BY RF-SCORE:    0.00 PKD
ROOT
HETATM    1  O   UNL     1     -10.741  17.077  65.095  1.00  0.00    -0.672 OA 
HETATM    2  C   UNL     1     -11.320  16.084  64.252  1.00  0.00    -0.137 C  
HETATM    3  H   UNL     1     -10.992  17.937  64.777  1.00  0.00     0.000 HD 
ENDROOT
BRANCH   2   4
HETATM    4  C   UNL     1     -10.917  14.700  64.765  1.00  0.00    -0.386 C  
BRANCH   4   5
HETATM    5  N   UNL     1     -11.490  14.313  66.070  1.00  0.00    -0.339 NA 
HETATM    6  C   UNL     1     -12.337  13.109  65.891  1.00  0.00    -0.398 C  
HETATM    7  C   UNL     1     -11.525  11.815  65.635  1.00  0.00    -0.186 C  
HETATM    8  N   UNL     1     -10.518  11.521  66.683  1.00  0.00    -0.229 NA 
HETATM    9  C   UNL     1      -9.665  12.714  66.852  1.00  0.00    -0.234 C  
HETATM   10  C   UNL     1     -10.460  14.017  67.094  1.00  0.00    -0.270 C  
BRANCH   8  11
HETATM   11  C   UNL     1     -11.121  11.115  67.970  1.00  0.00    -0.276 C  
BRANCH  11  12
HETATM   12  C   UNL     1     -10.271  10.009  68.603  1.00  0.00    -0.198 C  
BRANCH  12  13
HETATM   13  C   UNL     1     -10.130   8.718  67.865  1.00  0.00    -0.257 C  
HETATM   14  C   UNL     1      -9.087   8.256  67.117  1.00  0.00    -0.162 C  
HETATM   15  C   UNL     1      -9.301   6.888  66.470  1.00  0.00    -0.197 A  
HETATM   16  C   UNL     1     -10.378   6.034  66.812  1.00  0.00    -0.296 A  
HETATM   17  C   UNL     1     -10.598   4.801  66.185  1.00  0.00    -0.282 A  
HETATM   18  C   UNL     1      -9.724   4.358  65.215  1.00  0.00    -0.199 A  
HETATM   19  C   UNL     1      -8.638   5.153  64.875  1.00  0.00    -0.151 A  
HETATM   20  C   UNL     1      -8.423   6.410  65.484  1.00  0.00    -0.139 A  
HETATM   21  S   UNL     1      -6.999   7.266  64.875  1.00  0.00    -0.053 SA 
HETATM   22  C   UNL     1      -6.887   8.712  65.890  1.00  0.00    -0.068 A  
HETATM   23  C   UNL     1      -7.819   9.091  66.872  1.00  0.00    -0.101 A  
HETATM   24  C   UNL     1      -7.493  10.284  67.565  1.00  0.00    -0.090 A  
HETATM   25  C   UNL     1      -6.389  11.087  67.255  1.00  0.00    -0.069 A  
HETATM   26  C   UNL     1      -5.504  10.701  66.278  1.00  0.00    -0.086 A  
HETATM   27 CL   UNL     1      -6.154  12.578  68.088  1.00  0.00    -0.062 Cl 
HETATM   28  C   UNL     1      -5.743   9.508  65.612  1.00  0.00    -0.053 A  
ENDBRANCH  12  13
ENDBRANCH  11  12
ENDBRANCH   8  11
ENDBRANCH   4   5
ENDBRANCH   2   4
TORSDOF 5
ENDMDL
MODEL      131
REMARK 921   NORMALIZED FREE ENERGY PREDICTED BY IDOCK:   -4.33 KCAL/MOL
REMARK 922        TOTAL FREE ENERGY PREDICTED BY IDOCK:   -6.15 KCAL/MOL
REMARK 923 INTER-LIGAND FREE ENERGY PREDICTED BY IDOCK:   -5.78 KCAL/MOL
REMARK 924 INTRA-LIGAND FREE ENERGY PREDICTED BY IDOCK:   -0.36 KCAL/MOL
REMARK 927      BINDING AFFINITY PREDICTED BY RF-SCORE:    0.00 PKD
ROOT
HETATM    1  O   UNL     1      -5.399   5.564  68.778  1.00  0.00     0.000 OA 
HETATM    2  C   UNL     1      -5.558   6.528  69.816  1.00  0.00    -0.014 C  
HETATM    3  H   UNL     1      -4.595   5.080  68.928  1.00  0.00     0.000 HD 
ENDROOT
BRANCH   2   4
HETATM    4  C   UNL     1      -6.853   7.308  69.575  1.00  0.00    -0.050 C  
BRANCH   4   5
HETATM    5  N   UNL     1      -6.774   8.763  69.816  1.00  0.00    -0.045 NA 
HETATM    6  C   UNL     1      -6.130   9.415  68.651  1.00  0.00    -0.044 C  
HETATM    7  C   UNL     1      -7.034   9.468  67.395  1.00  0.00    -0.084 C  
HETATM    8  N   UNL     1      -8.344  10.122  67.626  1.00  0.00    -0.114 NA 
HETATM    9  C   UNL     1      -8.993   9.464  68.776  1.00  0.00    -0.132 C  
HETATM   10  C   UNL     1      -8.099   9.390  70.036  1.00  0.00    -0.152 C  
BRANCH   8  11
HETATM   11  C   UNL     1      -8.236  11.581  67.842  1.00  0.00    -0.134 C  
BRANCH  11  12
HETATM   12  C   UNL     1      -9.591  12.238  67.564  1.00  0.00    -0.184 C  
BRANCH  12  13
HETATM   13  C   UNL     1     -10.549  12.387  68.700  1.00  0.00    -0.243 C  
HETATM   14  C   UNL     1     -11.016  13.521  69.297  1.00  0.00    -0.169 C  
HETATM   15  C   UNL     1     -11.972  13.297  70.469  1.00  0.00    -0.319 A  
HETATM   16  C   UNL     1     -12.545  12.036  70.765  1.00  0.00    -0.312 A  
HETATM   17  C   UNL     1     -13.385  11.823  71.866  1.00  0.00    -0.401 A  
HETATM   18  C   UNL     1     -13.713  12.876  72.693  1.00  0.00    -0.209 A  
HETATM   19  C   UNL     1     -13.197  14.135  72.416  1.00  0.00    -0.566 A  
HETATM   20  C   UNL     1     -12.329  14.353  71.322  1.00  0.00    -0.359 A  
HETATM   21  S   UNL     1     -11.766  16.024  71.178  1.00  0.00    -0.409 SA 
HETATM   22  C   UNL     1     -10.832  16.046  69.674  1.00  0.00    -0.329 A  
HETATM   23  C   UNL     1     -10.548  14.923  68.876  1.00  0.00    -0.247 A  
HETATM   24  C   UNL     1      -9.796  15.206  67.708  1.00  0.00    -0.223 A  
HETATM   25  C   UNL     1      -9.288  16.473  67.396  1.00  0.00    -0.222 A  
HETATM   26  C   UNL     1      -9.566  17.548  68.204  1.00  0.00    -0.294 A  
HETATM   27 CL   UNL     1      -8.288  16.676  66.006  1.00  0.00    -0.291 Cl 
HETATM   28  C   UNL     1     -10.351  17.337  69.327  1.00  0.00    -0.237 A  
ENDBRANCH  12  13
ENDBRANCH  11  12
ENDBRANCH   8  11
ENDBRANCH   4   5
ENDBRANCH   2   4
TORSDOF 5
ENDMDL
MODEL      132
REMARK 921   NORMALIZED FREE ENERGY PREDICTED BY IDOCK:   -4.30 KCAL/MOL
REMARK 922        TOTAL FREE ENERGY PREDICTED BY IDOCK:   -6.11 KCAL/MOL
REMARK 923 INTER-LIGAND FREE ENERGY PREDICTED BY IDOCK:   -5.61 KCAL/MOL
REMARK 924 INTRA-LIGAND FREE ENERGY PREDICTED BY IDOCK:   -0.50 KCAL/MOL
REMARK 927      BINDING AFFINITY PREDICTED BY RF-SCORE:    0.00 PKD
ROOT
HETATM    1  O   UNL     1     -11.659   4.444  73.608  1.00  0.00    -0.213 OA 
HETATM    2  C   UNL     1     -10.459   5.177  73.845  1.00  0.00    -0.274 C  
HETATM    3  H   UNL     1     -11.613   3.618  74.075  1.00  0.00     0.000 HD 
ENDROOT
BRANCH   2   4
HETATM    4  C   UNL     1     -10.533   6.508  73.093  1.00  0.00    -0.249 C  
BRANCH   4   5
HETATM    5  N   UNL     1      -9.627   6.636  71.934  1.00  0.00    -0.151 NA 
HETATM    6  C   UNL     1     -10.284   6.057  70.738  1.00  0.00    -0.204 C  
HETATM    7  C   UNL     1     -11.441   6.926  70.186  1.00  0.00    -0.303 C  
HETATM    8  N   UNL     1     -11.045   8.320  69.869  1.00  0.00    -0.163 NA 
HETATM    9  C   UNL     1     -10.404   8.902  71.064  1.00  0.00    -0.253 C  
HETATM   10  C   UNL     1      -9.256   8.039  71.636  1.00  0.00    -0.150 C  
BRANCH   8  11
HETATM   11  C   UNL     1     -10.157   8.417  68.691  1.00  0.00    -0.193 C  
BRANCH  11  12
HETATM   12  C   UNL     1     -10.758   9.400  67.681  1.00  0.00    -0.295 C  
BRANCH  12  13
HETATM   13  C   UNL     1     -10.938  10.821  68.102  1.00  0.00    -0.308 C  
HETATM   14  C   UNL     1     -10.065  11.866  68.021  1.00  0.00    -0.199 C  
HETATM   15  C   UNL     1     -10.577  13.192  68.584  1.00  0.00    -0.259 A  
HETATM   16  C   UNL     1     -11.933  13.410  68.929  1.00  0.00    -0.362 A  
HETATM   17  C   UNL     1     -12.392  14.609  69.488  1.00  0.00    -0.232 A  
HETATM   18  C   UNL     1     -11.514  15.654  69.687  1.00  0.00    -0.345 A  
HETATM   19  C   UNL     1     -10.182  15.490  69.331  1.00  0.00    -0.262 A  
HETATM   20  C   UNL     1      -9.706  14.274  68.791  1.00  0.00    -0.173 A  
HETATM   21  S   UNL     1      -7.971  14.277  68.442  1.00  0.00    -0.149 SA 
HETATM   22  C   UNL     1      -7.677  12.717  67.656  1.00  0.00    -0.155 A  
HETATM   23  C   UNL     1      -8.635  11.702  67.480  1.00  0.00    -0.149 A  
HETATM   24  C   UNL     1      -8.156  10.552  66.802  1.00  0.00    -0.123 A  
HETATM   25  C   UNL     1      -6.823  10.378  66.411  1.00  0.00    -0.112 A  
HETATM   26  C   UNL     1      -5.905  11.379  66.613  1.00  0.00    -0.144 A  
HETATM   27 CL   UNL     1      -6.329   8.888  65.697  1.00  0.00    -0.059 Cl 
HETATM   28  C   UNL     1      -6.337  12.551  67.216  1.00  0.00    -0.126 A  
ENDBRANCH  12  13
ENDBRANCH  11  12
ENDBRANCH   8  11
ENDBRANCH   4   5
ENDBRANCH   2   4
TORSDOF 5
ENDMDL
MODEL      133
REMARK 921   NORMALIZED FREE ENERGY PREDICTED BY IDOCK:   -4.29 KCAL/MOL
REMARK 922        TOTAL FREE ENERGY PREDICTED BY IDOCK:   -6.10 KCAL/MOL
REMARK 923 INTER-LIGAND FREE ENERGY PREDICTED BY IDOCK:   -5.60 KCAL/MOL
REMARK 924 INTRA-LIGAND FREE ENERGY PREDICTED BY IDOCK:   -0.50 KCAL/MOL
REMARK 927      BINDING AFFINITY PREDICTED BY RF-SCORE:    0.00 PKD
ROOT
HETATM    1  O   UNL     1     -12.456  13.881  62.903  1.00  0.00    -1.034 OA 
HETATM    2  C   UNL     1     -12.427  12.576  63.476  1.00  0.00    -0.459 C  
HETATM    3  H   UNL     1     -12.329  13.808  61.964  1.00  0.00     0.000 HD 
ENDROOT
BRANCH   2   4
HETATM    4  C   UNL     1     -12.631  12.694  64.989  1.00  0.00    -0.430 C  
BRANCH   4   5
HETATM    5  N   UNL     1     -11.480  13.226  65.747  1.00  0.00    -0.315 NA 
HETATM    6  C   UNL     1     -11.630  12.861  67.176  1.00  0.00    -0.363 C  
HETATM    7  C   UNL     1     -11.381  11.359  67.460  1.00  0.00    -0.292 C  
HETATM    8  N   UNL     1     -10.061  10.870  66.992  1.00  0.00    -0.198 NA 
HETATM    9  C   UNL     1      -9.918  11.220  65.565  1.00  0.00    -0.247 C  
HETATM   10  C   UNL     1     -10.177  12.714  65.262  1.00  0.00    -0.284 C  
BRANCH   8  11
HETATM   11  C   UNL     1      -8.932  11.401  67.784  1.00  0.00    -0.147 C  
BRANCH  11  12
HETATM   12  C   UNL     1      -7.987  10.254  68.155  1.00  0.00    -0.109 C  
BRANCH  12  13
HETATM   13  C   UNL     1      -7.508   9.354  67.064  1.00  0.00    -0.091 C  
HETATM   14  C   UNL     1      -7.705   8.014  66.896  1.00  0.00    -0.099 C  
HETATM   15  C   UNL     1      -7.033   7.403  65.666  1.00  0.00    -0.060 A  
HETATM   16  C   UNL     1      -6.466   8.185  64.630  1.00  0.00    -0.064 A  
HETATM   17  C   UNL     1      -5.810   7.624  63.527  1.00  0.00    -0.053 A  
HETATM   18  C   UNL     1      -5.731   6.252  63.400  1.00  0.00    -0.022 A  
HETATM   19  C   UNL     1      -6.304   5.453  64.379  1.00  0.00    -0.026 A  
HETATM   20  C   UNL     1      -6.945   6.011  65.508  1.00  0.00    -0.060 A  
HETATM   21  S   UNL     1      -7.573   4.807  66.642  1.00  0.00    -0.088 SA 
HETATM   22  C   UNL     1      -8.434   5.758  67.863  1.00  0.00    -0.103 A  
HETATM   23  C   UNL     1      -8.476   7.163  67.918  1.00  0.00    -0.121 A  
HETATM   24  C   UNL     1      -9.251   7.688  68.983  1.00  0.00    -0.140 A  
HETATM   25  C   UNL     1      -9.859   6.897  69.966  1.00  0.00    -0.173 A  
HETATM   26  C   UNL     1      -9.785   5.528  69.897  1.00  0.00    -0.233 A  
HETATM   27 CL   UNL     1     -10.681   7.650  71.282  1.00  0.00    -0.236 Cl 
HETATM   28  C   UNL     1      -9.092   4.962  68.838  1.00  0.00    -0.149 A  
ENDBRANCH  12  13
ENDBRANCH  11  12
ENDBRANCH   8  11
ENDBRANCH   4   5
ENDBRANCH   2   4
TORSDOF 5
ENDMDL
MODEL      134
REMARK 921   NORMALIZED FREE ENERGY PREDICTED BY IDOCK:   -4.29 KCAL/MOL
REMARK 922        TOTAL FREE ENERGY PREDICTED BY IDOCK:   -6.09 KCAL/MOL
REMARK 923 INTER-LIGAND FREE ENERGY PREDICTED BY IDOCK:   -6.65 KCAL/MOL
REMARK 924 INTRA-LIGAND FREE ENERGY PREDICTED BY IDOCK:    0.55 KCAL/MOL
REMARK 927      BINDING AFFINITY PREDICTED BY RF-SCORE:    0.00 PKD
ROOT
HETATM    1  O   UNL     1     -13.892  13.734  72.753  1.00  0.00    -0.716 OA 
HETATM    2  C   UNL     1     -13.884  14.046  71.362  1.00  0.00    -0.191 C  
HETATM    3  H   UNL     1     -14.792  13.664  73.049  1.00  0.00     0.000 HD 
ENDROOT
BRANCH   2   4
HETATM    4  C   UNL     1     -12.434  14.158  70.887  1.00  0.00    -0.365 C  
BRANCH   4   5
HETATM    5  N   UNL     1     -12.256  14.544  69.472  1.00  0.00    -0.295 NA 
HETATM    6  C   UNL     1     -11.180  15.560  69.377  1.00  0.00    -0.300 C  
HETATM    7  C   UNL     1      -9.762  14.981  69.608  1.00  0.00    -0.054 C  
HETATM    8  N   UNL     1      -9.419  13.856  68.705  1.00  0.00    -0.170 NA 
HETATM    9  C   UNL     1     -10.481  12.838  68.810  1.00  0.00    -0.156 C  
HETATM   10  C   UNL     1     -11.905  13.401  68.596  1.00  0.00    -0.362 C  
BRANCH   8  11
HETATM   11  C   UNL     1      -9.224  14.276  67.301  1.00  0.00    -0.214 C  
BRANCH  11  12
HETATM   12  C   UNL     1      -7.770  14.708  67.096  1.00  0.00    -0.121 C  
BRANCH  12  13
HETATM   13  C   UNL     1      -7.237  15.817  67.942  1.00  0.00    -0.154 C  
HETATM   14  C   UNL     1      -7.641  17.118  68.021  1.00  0.00    -0.192 C  
HETATM   15  C   UNL     1      -6.839  17.995  68.982  1.00  0.00    -0.250 A  
HETATM   16  C   UNL     1      -5.916  17.468  69.918  1.00  0.00    -0.223 A  
HETATM   17  C   UNL     1      -5.148  18.276  70.766  1.00  0.00    -0.272 A  
HETATM   18  C   UNL     1      -5.303  19.646  70.735  1.00  0.00    -0.267 A  
HETATM   19  C   UNL     1      -6.222  20.198  69.854  1.00  0.00    -0.380 A  
HETATM   20  C   UNL     1      -6.982  19.392  68.977  1.00  0.00    -0.355 A  
HETATM   21  S   UNL     1      -8.065  20.308  67.919  1.00  0.00    -0.102 SA 
HETATM   22  C   UNL     1      -8.982  19.070  67.047  1.00  0.00    -0.294 A  
HETATM   23  C   UNL     1      -8.769  17.682  67.142  1.00  0.00    -0.252 A  
HETATM   24  C   UNL     1      -9.649  16.896  66.357  1.00  0.00    -0.305 A  
HETATM   25  C   UNL     1     -10.601  17.433  65.481  1.00  0.00    -0.108 A  
HETATM   26  C   UNL     1     -10.774  18.793  65.395  1.00  0.00     0.195 A  
HETATM   27 CL   UNL     1     -11.539  16.382  64.487  1.00  0.00    -0.192 Cl 
HETATM   28  C   UNL     1      -9.980  19.606  66.191  1.00  0.00    -0.554 A  
ENDBRANCH  12  13
ENDBRANCH  11  12
ENDBRANCH   8  11
ENDBRANCH   4   5
ENDBRANCH   2   4
TORSDOF 5
ENDMDL
MODEL      135
REMARK 921   NORMALIZED FREE ENERGY PREDICTED BY IDOCK:   -4.22 KCAL/MOL
REMARK 922        TOTAL FREE ENERGY PREDICTED BY IDOCK:   -6.01 KCAL/MOL
REMARK 923 INTER-LIGAND FREE ENERGY PREDICTED BY IDOCK:   -5.55 KCAL/MOL
REMARK 924 INTRA-LIGAND FREE ENERGY PREDICTED BY IDOCK:   -0.46 KCAL/MOL
REMARK 927      BINDING AFFINITY PREDICTED BY RF-SCORE:    0.00 PKD
ROOT
HETATM    1  O   UNL     1      -9.473   3.327  69.190  1.00  0.00    -0.162 OA 
HETATM    2  C   UNL     1      -9.428   3.843  67.862  1.00  0.00    -0.173 C  
HETATM    3  H   UNL     1      -9.407   2.380  69.156  1.00  0.00     0.000 HD 
ENDROOT
BRANCH   2   4
HETATM    4  C   UNL     1      -9.533   5.369  67.917  1.00  0.00    -0.120 C  
BRANCH   4   5
HETATM    5  N   UNL     1      -9.958   6.023  66.663  1.00  0.00    -0.167 NA 
HETATM    6  C   UNL     1     -11.034   6.998  66.965  1.00  0.00    -0.287 C  
HETATM    7  C   UNL     1     -10.531   8.268  67.695  1.00  0.00    -0.235 C  
HETATM    8  N   UNL     1      -9.446   8.981  66.978  1.00  0.00    -0.155 NA 
HETATM    9  C   UNL     1      -8.368   8.016  66.691  1.00  0.00    -0.120 C  
HETATM   10  C   UNL     1      -8.856   6.735  65.975  1.00  0.00    -0.135 C  
BRANCH   8  11
HETATM   11  C   UNL     1      -9.907   9.645  65.740  1.00  0.00    -0.302 C  
BRANCH  11  12
HETATM   12  C   UNL     1      -9.466  11.112  65.756  1.00  0.00    -0.248 C  
BRANCH  12  13
HETATM   13  C   UNL     1      -8.592  11.574  66.875  1.00  0.00    -0.163 C  
HETATM   14  C   UNL     1      -8.463  12.819  67.417  1.00  0.00    -0.191 C  
HETATM   15  C   UNL     1      -7.436  12.939  68.543  1.00  0.00    -0.123 A  
HETATM   16  C   UNL     1      -6.844  11.815  69.169  1.00  0.00    -0.106 A  
HETATM   17  C   UNL     1      -5.870  11.927  70.169  1.00  0.00    -0.157 A  
HETATM   18  C   UNL     1      -5.478  13.175  70.610  1.00  0.00    -0.169 A  
HETATM   19  C   UNL     1      -6.061  14.300  70.043  1.00  0.00    -0.150 A  
HETATM   20  C   UNL     1      -7.025  14.196  69.015  1.00  0.00    -0.112 A  
HETATM   21  S   UNL     1      -7.606  15.757  68.419  1.00  0.00    -0.135 SA 
HETATM   22  C   UNL     1      -8.883  15.340  67.265  1.00  0.00    -0.196 A  
HETATM   23  C   UNL     1      -9.232  14.035  66.874  1.00  0.00    -0.271 A  
HETATM   24  C   UNL     1     -10.304  13.964  65.950  1.00  0.00    -0.318 A  
HETATM   25  C   UNL     1     -10.922  15.086  65.386  1.00  0.00    -0.373 A  
HETATM   26  C   UNL     1     -10.548  16.350  65.773  1.00  0.00    -0.327 A  
HETATM   27 CL   UNL     1     -12.139  14.880  64.183  1.00  0.00    -0.391 Cl 
HETATM   28  C   UNL     1      -9.546  16.474  66.724  1.00  0.00    -0.268 A  
ENDBRANCH  12  13
ENDBRANCH  11  12
ENDBRANCH   8  11
ENDBRANCH   4   5
ENDBRANCH   2   4
TORSDOF 5
ENDMDL
MODEL      136
REMARK 921   NORMALIZED FREE ENERGY PREDICTED BY IDOCK:   -4.22 KCAL/MOL
REMARK 922        TOTAL FREE ENERGY PREDICTED BY IDOCK:   -6.01 KCAL/MOL
REMARK 923 INTER-LIGAND FREE ENERGY PREDICTED BY IDOCK:   -5.65 KCAL/MOL
REMARK 924 INTRA-LIGAND FREE ENERGY PREDICTED BY IDOCK:   -0.36 KCAL/MOL
REMARK 927      BINDING AFFINITY PREDICTED BY RF-SCORE:    0.00 PKD
ROOT
HETATM    1  O   UNL     1      -7.089  14.751  70.720  1.00  0.00    -0.080 OA 
HETATM    2  C   UNL     1      -5.944  14.942  69.894  1.00  0.00    -0.132 C  
HETATM    3  H   UNL     1      -7.499  15.593  70.880  1.00  0.00     0.000 HD 
ENDROOT
BRANCH   2   4
HETATM    4  C   UNL     1      -5.284  13.585  69.636  1.00  0.00    -0.085 C  
BRANCH   4   5
HETATM    5  N   UNL     1      -5.443  13.050  68.268  1.00  0.00    -0.071 NA 
HETATM    6  C   UNL     1      -5.751  11.602  68.347  1.00  0.00    -0.045 C  
HETATM    7  C   UNL     1      -7.185  11.301  68.849  1.00  0.00    -0.112 C  
HETATM    8  N   UNL     1      -8.250  11.959  68.054  1.00  0.00    -0.148 NA 
HETATM    9  C   UNL     1      -7.952  13.403  67.988  1.00  0.00    -0.148 C  
HETATM   10  C   UNL     1      -6.519  13.721  67.501  1.00  0.00    -0.072 C  
BRANCH   8  11
HETATM   11  C   UNL     1      -8.401  11.387  66.699  1.00  0.00    -0.172 C  
BRANCH  11  12
HETATM   12  C   UNL     1      -9.734  10.639  66.609  1.00  0.00    -0.225 C  
BRANCH  12  13
HETATM   13  C   UNL     1      -9.821   9.277  67.216  1.00  0.00    -0.236 C  
HETATM   14  C   UNL     1     -10.444   8.877  68.362  1.00  0.00    -0.230 C  
HETATM   15  C   UNL     1     -10.300   7.394  68.701  1.00  0.00    -0.215 A  
HETATM   16  C   UNL     1      -9.789   6.440  67.786  1.00  0.00    -0.136 A  
HETATM   17  C   UNL     1      -9.614   5.090  68.115  1.00  0.00    -0.182 A  
HETATM   18  C   UNL     1      -9.982   4.634  69.363  1.00  0.00    -0.249 A  
HETATM   19  C   UNL     1     -10.517   5.532  70.276  1.00  0.00    -0.365 A  
HETATM   20  C   UNL     1     -10.672   6.901  69.962  1.00  0.00    -0.243 A  
HETATM   21  S   UNL     1     -11.342   7.868  71.284  1.00  0.00    -0.266 SA 
HETATM   22  C   UNL     1     -11.561   9.480  70.585  1.00  0.00    -0.283 A  
HETATM   23  C   UNL     1     -11.167   9.865  69.291  1.00  0.00    -0.174 A  
HETATM   24  C   UNL     1     -11.472  11.209  68.959  1.00  0.00    -0.364 A  
HETATM   25  C   UNL     1     -12.035  12.125  69.857  1.00  0.00    -0.309 A  
HETATM   26  C   UNL     1     -12.393  11.724  71.121  1.00  0.00    -0.329 A  
HETATM   27 CL   UNL     1     -12.255  13.767  69.379  1.00  0.00    -0.363 Cl 
HETATM   28  C   UNL     1     -12.174  10.401  71.475  1.00  0.00    -0.418 A  
ENDBRANCH  12  13
ENDBRANCH  11  12
ENDBRANCH   8  11
ENDBRANCH   4   5
ENDBRANCH   2   4
TORSDOF 5
ENDMDL
MODEL      137
REMARK 921   NORMALIZED FREE ENERGY PREDICTED BY IDOCK:   -4.20 KCAL/MOL
REMARK 922        TOTAL FREE ENERGY PREDICTED BY IDOCK:   -5.98 KCAL/MOL
REMARK 923 INTER-LIGAND FREE ENERGY PREDICTED BY IDOCK:   -5.38 KCAL/MOL
REMARK 924 INTRA-LIGAND FREE ENERGY PREDICTED BY IDOCK:   -0.60 KCAL/MOL
REMARK 927      BINDING AFFINITY PREDICTED BY RF-SCORE:    0.00 PKD
ROOT
HETATM    1  O   UNL     1      -5.170   3.560  73.807  1.00  0.00     0.000 OA 
HETATM    2  C   UNL     1      -5.367   3.694  72.401  1.00  0.00     0.000 C  
HETATM    3  H   UNL     1      -4.820   2.695  73.988  1.00  0.00     0.000 HD 
ENDROOT
BRANCH   2   4
HETATM    4  C   UNL     1      -5.930   5.086  72.109  1.00  0.00    -0.025 C  
BRANCH   4   5
HETATM    5  N   UNL     1      -7.333   5.304  72.516  1.00  0.00    -0.092 NA 
HETATM    6  C   UNL     1      -7.619   6.759  72.514  1.00  0.00    -0.095 C  
HETATM    7  C   UNL     1      -7.725   7.366  71.094  1.00  0.00    -0.090 C  
HETATM    8  N   UNL     1      -8.725   6.696  70.228  1.00  0.00    -0.146 NA 
HETATM    9  C   UNL     1      -8.432   5.250  70.217  1.00  0.00    -0.110 C  
HETATM   10  C   UNL     1      -8.309   4.629  71.628  1.00  0.00    -0.104 C  
BRANCH   8  11
HETATM   11  C   UNL     1     -10.120   6.950  70.646  1.00  0.00    -0.194 C  
BRANCH  11  12
HETATM   12  C   UNL     1     -10.962   7.309  69.418  1.00  0.00    -0.157 C  
BRANCH  12  13
HETATM   13  C   UNL     1     -10.257   7.529  68.120  1.00  0.00    -0.228 C  
HETATM   14  C   UNL     1     -10.079   8.683  67.415  1.00  0.00    -0.292 C  
HETATM   15  C   UNL     1      -9.327   8.533  66.093  1.00  0.00    -0.279 A  
HETATM   16  C   UNL     1      -8.636   7.351  65.729  1.00  0.00    -0.150 A  
HETATM   17  C   UNL     1      -7.987   7.198  64.498  1.00  0.00    -0.104 A  
HETATM   18  C   UNL     1      -7.973   8.241  63.595  1.00  0.00    -0.153 A  
HETATM   19  C   UNL     1      -8.612   9.428  63.929  1.00  0.00    -0.225 A  
HETATM   20  C   UNL     1      -9.291   9.581  65.159  1.00  0.00    -0.252 A  
HETATM   21  S   UNL     1     -10.061  11.161  65.359  1.00  0.00    -0.279 SA 
HETATM   22  C   UNL     1     -10.701  11.133  67.010  1.00  0.00    -0.268 A  
HETATM   23  C   UNL     1     -10.667  10.026  67.877  1.00  0.00    -0.322 A  
HETATM   24  C   UNL     1     -11.228  10.263  69.157  1.00  0.00    -0.268 A  
HETATM   25  C   UNL     1     -11.855  11.461  69.523  1.00  0.00    -0.357 A  
HETATM   26  C   UNL     1     -11.890  12.520  68.648  1.00  0.00    -0.340 A  
HETATM   27 CL   UNL     1     -12.607  11.597  71.068  1.00  0.00    -0.468 Cl 
HETATM   28  C   UNL     1     -11.298  12.361  67.404  1.00  0.00    -0.381 A  
ENDBRANCH  12  13
ENDBRANCH  11  12
ENDBRANCH   8  11
ENDBRANCH   4   5
ENDBRANCH   2   4
TORSDOF 5
ENDMDL
MODEL      138
REMARK 921   NORMALIZED FREE ENERGY PREDICTED BY IDOCK:   -4.14 KCAL/MOL
REMARK 922        TOTAL FREE ENERGY PREDICTED BY IDOCK:   -5.90 KCAL/MOL
REMARK 923 INTER-LIGAND FREE ENERGY PREDICTED BY IDOCK:   -5.33 KCAL/MOL
REMARK 924 INTRA-LIGAND FREE ENERGY PREDICTED BY IDOCK:   -0.57 KCAL/MOL
REMARK 927      BINDING AFFINITY PREDICTED BY RF-SCORE:    0.00 PKD
ROOT
HETATM    1  O   UNL     1      -9.604   2.351  71.714  1.00  0.00    -0.115 OA 
HETATM    2  C   UNL     1     -10.323   3.057  72.723  1.00  0.00    -0.148 C  
HETATM    3  H   UNL     1      -9.802   1.424  71.785  1.00  0.00     0.000 HD 
ENDROOT
BRANCH   2   4
HETATM    4  C   UNL     1     -10.004   4.549  72.607  1.00  0.00    -0.165 C  
BRANCH   4   5
HETATM    5  N   UNL     1     -11.017   5.364  71.906  1.00  0.00    -0.195 NA 
HETATM    6  C   UNL     1     -11.043   6.722  72.500  1.00  0.00    -0.264 C  
HETATM    7  C   UNL     1      -9.806   7.580  72.134  1.00  0.00    -0.169 C  
HETATM    8  N   UNL     1      -9.581   7.716  70.675  1.00  0.00    -0.164 NA 
HETATM    9  C   UNL     1      -9.539   6.364  70.086  1.00  0.00    -0.160 C  
HETATM   10  C   UNL     1     -10.760   5.488  70.452  1.00  0.00    -0.251 C  
BRANCH   8  11
HETATM   11  C   UNL     1     -10.597   8.555  70.005  1.00  0.00    -0.227 C  
BRANCH  11  12
HETATM   12  C   UNL     1     -10.223   8.726  68.530  1.00  0.00    -0.220 C  
BRANCH  12  13
HETATM   13  C   UNL     1     -10.553  10.022  67.865  1.00  0.00    -0.298 C  
HETATM   14  C   UNL     1      -9.756  11.103  67.628  1.00  0.00    -0.184 C  
HETATM   15  C   UNL     1     -10.443  12.286  66.945  1.00  0.00    -0.240 A  
HETATM   16  C   UNL     1     -11.730  12.196  66.360  1.00  0.00    -0.394 A  
HETATM   17  C   UNL     1     -12.376  13.292  65.775  1.00  0.00    -0.505 A  
HETATM   18  C   UNL     1     -11.741  14.515  65.720  1.00  0.00    -0.344 A  
HETATM   19  C   UNL     1     -10.465  14.634  66.253  1.00  0.00    -0.302 A  
HETATM   20  C   UNL     1      -9.815  13.540  66.868  1.00  0.00    -0.257 A  
HETATM   21  S   UNL     1      -8.212  13.926  67.508  1.00  0.00    -0.197 SA 
HETATM   22  C   UNL     1      -7.580  12.375  68.081  1.00  0.00    -0.129 A  
HETATM   23  C   UNL     1      -8.292  11.161  68.094  1.00  0.00    -0.136 A  
HETATM   24  C   UNL     1      -7.557  10.053  68.584  1.00  0.00    -0.088 A  
HETATM   25  C   UNL     1      -6.259  10.146  69.102  1.00  0.00    -0.040 A  
HETATM   26  C   UNL     1      -5.595  11.349  69.093  1.00  0.00    -0.044 A  
HETATM   27 CL   UNL     1      -5.505   8.751  69.778  1.00  0.00    -0.029 Cl 
HETATM   28  C   UNL     1      -6.247  12.453  68.566  1.00  0.00    -0.062 A  
ENDBRANCH  12  13
ENDBRANCH  11  12
ENDBRANCH   8  11
ENDBRANCH   4   5
ENDBRANCH   2   4
TORSDOF 5
ENDMDL
MODEL      139
REMARK 921   NORMALIZED FREE ENERGY PREDICTED BY IDOCK:   -4.13 KCAL/MOL
REMARK 922        TOTAL FREE ENERGY PREDICTED BY IDOCK:   -5.89 KCAL/MOL
REMARK 923 INTER-LIGAND FREE ENERGY PREDICTED BY IDOCK:   -5.63 KCAL/MOL
REMARK 924 INTRA-LIGAND FREE ENERGY PREDICTED BY IDOCK:   -0.26 KCAL/MOL
REMARK 927      BINDING AFFINITY PREDICTED BY RF-SCORE:    0.00 PKD
ROOT
HETATM    1  O   UNL     1      -5.577  14.592  69.496  1.00  0.00    -0.091 OA 
HETATM    2  C   UNL     1      -5.380  14.433  68.093  1.00  0.00    -0.120 C  
HETATM    3  H   UNL     1      -5.059  15.329  69.798  1.00  0.00     0.000 HD 
ENDROOT
BRANCH   2   4
HETATM    4  C   UNL     1      -6.214  13.246  67.605  1.00  0.00    -0.148 C  
BRANCH   4   5
HETATM    5  N   UNL     1      -7.183  12.706  68.581  1.00  0.00    -0.109 NA 
HETATM    6  C   UNL     1      -8.557  12.891  68.055  1.00  0.00    -0.186 C  
HETATM    7  C   UNL     1      -8.902  11.942  66.881  1.00  0.00    -0.197 C  
HETATM    8  N   UNL     1      -8.716  10.505  67.196  1.00  0.00    -0.130 NA 
HETATM    9  C   UNL     1      -7.344  10.317  67.705  1.00  0.00    -0.087 C  
HETATM   10  C   UNL     1      -6.977  11.267  68.869  1.00  0.00    -0.099 C  
BRANCH   8  11
HETATM   11  C   UNL     1      -9.713   9.987  68.157  1.00  0.00    -0.140 C  
BRANCH  11  12
HETATM   12  C   UNL     1     -10.631   8.987  67.447  1.00  0.00    -0.309 C  
BRANCH  12  13
HETATM   13  C   UNL     1     -10.290   7.536  67.529  1.00  0.00    -0.321 C  
HETATM   14  C   UNL     1     -10.422   6.672  68.576  1.00  0.00    -0.246 C  
HETATM   15  C   UNL     1      -9.935   5.247  68.314  1.00  0.00    -0.214 A  
HETATM   16  C   UNL     1      -9.610   4.769  67.020  1.00  0.00    -0.187 A  
HETATM   17  C   UNL     1      -9.120   3.478  66.788  1.00  0.00    -0.179 A  
HETATM   18  C   UNL     1      -8.972   2.599  67.841  1.00  0.00    -0.201 A  
HETATM   19  C   UNL     1      -9.311   3.021  69.120  1.00  0.00    -0.220 A  
HETATM   20  C   UNL     1      -9.782   4.330  69.367  1.00  0.00    -0.187 A  
HETATM   21  S   UNL     1     -10.120   4.659  71.072  1.00  0.00    -0.135 SA 
HETATM   22  C   UNL     1     -10.818   6.287  71.076  1.00  0.00    -0.271 A  
HETATM   23  C   UNL     1     -10.944   7.121  69.950  1.00  0.00    -0.278 A  
HETATM   24  C   UNL     1     -11.556   8.373  70.211  1.00  0.00     0.016 A  
HETATM   25  C   UNL     1     -11.929   8.806  71.489  1.00  0.00    -0.324 A  
HETATM   26  C   UNL     1     -11.776   7.977  72.573  1.00  0.00    -0.446 A  
HETATM   27 CL   UNL     1     -12.558  10.397  71.703  1.00  0.00    -0.519 Cl 
HETATM   28  C   UNL     1     -11.241   6.715  72.363  1.00  0.00    -0.302 A  
ENDBRANCH  12  13
ENDBRANCH  11  12
ENDBRANCH   8  11
ENDBRANCH   4   5
ENDBRANCH   2   4
TORSDOF 5
ENDMDL
MODEL      140
REMARK 921   NORMALIZED FREE ENERGY PREDICTED BY IDOCK:   -4.11 KCAL/MOL
REMARK 922        TOTAL FREE ENERGY PREDICTED BY IDOCK:   -5.87 KCAL/MOL
REMARK 923 INTER-LIGAND FREE ENERGY PREDICTED BY IDOCK:   -5.31 KCAL/MOL
REMARK 924 INTRA-LIGAND FREE ENERGY PREDICTED BY IDOCK:   -0.55 KCAL/MOL
REMARK 927      BINDING AFFINITY PREDICTED BY RF-SCORE:    0.00 PKD
ROOT
HETATM    1  O   UNL     1     -11.025  13.515  64.022  1.00  0.00    -0.551 OA 
HETATM    2  C   UNL     1     -10.965  12.163  64.470  1.00  0.00    -0.314 C  
HETATM    3  H   UNL     1     -10.767  13.550  63.108  1.00  0.00     0.000 HD 
ENDROOT
BRANCH   2   4
HETATM    4  C   UNL     1     -11.381  12.107  65.941  1.00  0.00    -0.356 C  
BRANCH   4   5
HETATM    5  N   UNL     1     -10.370  12.584  66.907  1.00  0.00    -0.228 NA 
HETATM    6  C   UNL     1     -10.738  12.117  68.265  1.00  0.00    -0.223 C  
HETATM    7  C   UNL     1     -10.519  10.599  68.478  1.00  0.00    -0.191 C  
HETATM    8  N   UNL     1      -9.136  10.147  68.190  1.00  0.00    -0.127 NA 
HETATM    9  C   UNL     1      -8.775  10.597  66.833  1.00  0.00    -0.132 C  
HETATM   10  C   UNL     1      -9.001  12.109  66.599  1.00  0.00    -0.198 C  
BRANCH   8  11
HETATM   11  C   UNL     1      -8.152  10.620  69.186  1.00  0.00    -0.141 C  
BRANCH  11  12
HETATM   12  C   UNL     1      -8.331   9.839  70.491  1.00  0.00    -0.014 C  
BRANCH  12  13
HETATM   13  C   UNL     1      -8.006   8.381  70.490  1.00  0.00    -0.098 C  
HETATM   14  C   UNL     1      -8.810   7.313  70.764  1.00  0.00    -0.150 C  
HETATM   15  C   UNL     1      -8.127   5.947  70.700  1.00  0.00    -0.118 A  
HETATM   16  C   UNL     1      -6.835   5.756  70.151  1.00  0.00    -0.053 A  
HETATM   17  C   UNL     1      -6.192   4.512  70.135  1.00  0.00    -0.022 A  
HETATM   18  C   UNL     1      -6.837   3.400  70.636  1.00  0.00    -0.033 A  
HETATM   19  C   UNL     1      -8.117   3.541  71.152  1.00  0.00    -0.069 A  
HETATM   20  C   UNL     1      -8.763   4.798  71.196  1.00  0.00    -0.118 A  
HETATM   21  S   UNL     1     -10.374   4.750  71.925  1.00  0.00    -0.134 SA 
HETATM   22  C   UNL     1     -10.998   6.394  71.723  1.00  0.00    -0.255 A  
HETATM   23  C   UNL     1     -10.277   7.478  71.191  1.00  0.00    -0.199 A  
HETATM   24  C   UNL     1     -11.008   8.691  71.115  1.00  0.00    -0.320 A  
HETATM   25  C   UNL     1     -12.309   8.848  71.607  1.00  0.00    -0.343 A  
HETATM   26  C   UNL     1     -12.983   7.775  72.139  1.00  0.00    -0.166 A  
HETATM   27 CL   UNL     1     -13.058  10.400  71.566  1.00  0.00    -0.516 Cl 
HETATM   28  C   UNL     1     -12.335   6.550  72.178  1.00  0.00    -0.244 A  
ENDBRANCH  12  13
ENDBRANCH  11  12
ENDBRANCH   8  11
ENDBRANCH   4   5
ENDBRANCH   2   4
TORSDOF 5
ENDMDL
MODEL      141
REMARK 921   NORMALIZED FREE ENERGY PREDICTED BY IDOCK:   -4.11 KCAL/MOL
REMARK 922        TOTAL FREE ENERGY PREDICTED BY IDOCK:   -5.87 KCAL/MOL
REMARK 923 INTER-LIGAND FREE ENERGY PREDICTED BY IDOCK:   -5.48 KCAL/MOL
REMARK 924 INTRA-LIGAND FREE ENERGY PREDICTED BY IDOCK:   -0.38 KCAL/MOL
REMARK 927      BINDING AFFINITY PREDICTED BY RF-SCORE:    0.00 PKD
ROOT
HETATM    1  O   UNL     1     -11.542   6.118  69.424  1.00  0.00    -0.459 OA 
HETATM    2  C   UNL     1     -10.188   6.020  69.859  1.00  0.00    -0.205 C  
HETATM    3  H   UNL     1     -12.109   5.769  70.101  1.00  0.00     0.000 HD 
ENDROOT
BRANCH   2   4
HETATM    4  C   UNL     1      -9.273   6.582  68.768  1.00  0.00    -0.131 C  
BRANCH   4   5
HETATM    5  N   UNL     1      -9.601   7.945  68.302  1.00  0.00    -0.153 NA 
HETATM    6  C   UNL     1      -8.873   8.931  69.136  1.00  0.00    -0.136 C  
HETATM    7  C   UNL     1      -7.352   8.980  68.848  1.00  0.00    -0.074 C  
HETATM    8  N   UNL     1      -7.019   9.239  67.426  1.00  0.00    -0.077 NA 
HETATM    9  C   UNL     1      -7.731   8.248  66.597  1.00  0.00    -0.093 C  
HETATM   10  C   UNL     1      -9.249   8.176  66.881  1.00  0.00    -0.160 C  
BRANCH   8  11
HETATM   11  C   UNL     1      -7.336  10.617  66.996  1.00  0.00    -0.102 C  
BRANCH  11  12
HETATM   12  C   UNL     1      -7.065  11.585  68.151  1.00  0.00    -0.076 C  
BRANCH  12  13
HETATM   13  C   UNL     1      -6.845  13.026  67.827  1.00  0.00    -0.144 C  
HETATM   14  C   UNL     1      -7.759  14.007  67.576  1.00  0.00    -0.197 C  
HETATM   15  C   UNL     1      -7.171  15.379  67.242  1.00  0.00    -0.229 A  
HETATM   16  C   UNL     1      -5.803  15.696  67.427  1.00  0.00    -0.029 A  
HETATM   17  C   UNL     1      -5.257  16.938  67.078  1.00  0.00    -0.182 A  
HETATM   18  C   UNL     1      -6.072  17.926  66.564  1.00  0.00    -0.215 A  
HETATM   19  C   UNL     1      -7.425  17.663  66.400  1.00  0.00    -0.324 A  
HETATM   20  C   UNL     1      -7.978  16.404  66.725  1.00  0.00    -0.260 A  
HETATM   21  S   UNL     1      -9.714  16.281  66.403  1.00  0.00    -0.310 SA 
HETATM   22  C   UNL     1     -10.165  14.686  67.024  1.00  0.00    -0.261 A  
HETATM   23  C   UNL     1      -9.271  13.733  67.545  1.00  0.00    -0.216 A  
HETATM   24  C   UNL     1      -9.883  12.537  67.998  1.00  0.00    -0.214 A  
HETATM   25  C   UNL     1     -11.250  12.263  67.864  1.00  0.00    -0.274 A  
HETATM   26  C   UNL     1     -12.097  13.205  67.334  1.00  0.00    -0.316 A  
HETATM   27 CL   UNL     1     -11.865  10.726  68.344  1.00  0.00    -0.238 Cl 
HETATM   28  C   UNL     1     -11.558  14.419  66.934  1.00  0.00    -0.404 A  
ENDBRANCH  12  13
ENDBRANCH  11  12
ENDBRANCH   8  11
ENDBRANCH   4   5
ENDBRANCH   2   4
TORSDOF 5
ENDMDL
MODEL      142
REMARK 921   NORMALIZED FREE ENERGY PREDICTED BY IDOCK:   -4.09 KCAL/MOL
REMARK 922        TOTAL FREE ENERGY PREDICTED BY IDOCK:   -5.84 KCAL/MOL
REMARK 923 INTER-LIGAND FREE ENERGY PREDICTED BY IDOCK:   -6.27 KCAL/MOL
REMARK 924 INTRA-LIGAND FREE ENERGY PREDICTED BY IDOCK:    0.43 KCAL/MOL
REMARK 927      BINDING AFFINITY PREDICTED BY RF-SCORE:    0.00 PKD
ROOT
HETATM    1  O   UNL     1     -11.565  16.242  63.726  1.00  0.00    -1.539 OA 
HETATM    2  C   UNL     1     -12.715  15.478  64.081  1.00  0.00     0.601 C  
HETATM    3  H   UNL     1     -11.659  17.121  64.074  1.00  0.00     0.000 HD 
ENDROOT
BRANCH   2   4
HETATM    4  C   UNL     1     -12.564  14.062  63.521  1.00  0.00     0.407 C  
BRANCH   4   5
HETATM    5  N   UNL     1     -12.567  12.978  64.523  1.00  0.00    -0.659 NA 
HETATM    6  C   UNL     1     -11.744  11.851  64.022  1.00  0.00    -0.378 C  
HETATM    7  C   UNL     1     -10.223  12.140  64.041  1.00  0.00    -0.370 C  
HETATM    8  N   UNL     1      -9.704  12.535  65.373  1.00  0.00    -0.152 NA 
HETATM    9  C   UNL     1     -10.513  13.667  65.866  1.00  0.00    -0.296 C  
HETATM   10  C   UNL     1     -12.036  13.400  65.841  1.00  0.00    -0.409 C  
BRANCH   8  11
HETATM   11  C   UNL     1      -9.698  11.424  66.348  1.00  0.00    -0.204 C  
BRANCH  11  12
HETATM   12  C   UNL     1      -8.826  11.805  67.548  1.00  0.00    -0.162 C  
BRANCH  12  13
HETATM   13  C   UNL     1      -8.401  13.230  67.686  1.00  0.00    -0.181 C  
HETATM   14  C   UNL     1      -8.955  14.231  68.428  1.00  0.00    -0.189 C  
HETATM   15  C   UNL     1      -8.270  15.593  68.306  1.00  0.00    -0.142 A  
HETATM   16  C   UNL     1      -7.009  15.767  67.686  1.00  0.00    -0.194 A  
HETATM   17  C   UNL     1      -6.404  17.021  67.533  1.00  0.00    -0.172 A  
HETATM   18  C   UNL     1      -7.024  18.148  68.033  1.00  0.00    -0.217 A  
HETATM   19  C   UNL     1      -8.247  18.012  68.676  1.00  0.00    -0.287 A  
HETATM   20  C   UNL     1      -8.876  16.754  68.811  1.00  0.00    -0.258 A  
HETATM   21  S   UNL     1     -10.441  16.822  69.634  1.00  0.00    -0.123 SA 
HETATM   22  C   UNL     1     -10.928  15.127  69.793  1.00  0.00    -0.280 A  
HETATM   23  C   UNL     1     -10.231  14.027  69.261  1.00  0.00     0.070 A  
HETATM   24  C   UNL     1     -10.817  12.767  69.542  1.00  0.00     0.158 A  
HETATM   25  C   UNL     1     -12.036  12.607  70.212  1.00  0.00    -0.284 A  
HETATM   26  C   UNL     1     -12.704  13.701  70.704  1.00  0.00    -0.303 A  
HETATM   27 CL   UNL     1     -12.711  11.031  70.397  1.00  0.00    -0.333 Cl 
HETATM   28  C   UNL     1     -12.141  14.954  70.512  1.00  0.00    -0.378 A  
ENDBRANCH  12  13
ENDBRANCH  11  12
ENDBRANCH   8  11
ENDBRANCH   4   5
ENDBRANCH   2   4
TORSDOF 5
ENDMDL
MODEL      143
REMARK 921   NORMALIZED FREE ENERGY PREDICTED BY IDOCK:   -4.08 KCAL/MOL
REMARK 922        TOTAL FREE ENERGY PREDICTED BY IDOCK:   -5.83 KCAL/MOL
REMARK 923 INTER-LIGAND FREE ENERGY PREDICTED BY IDOCK:   -5.27 KCAL/MOL
REMARK 924 INTRA-LIGAND FREE ENERGY PREDICTED BY IDOCK:   -0.55 KCAL/MOL
REMARK 927      BINDING AFFINITY PREDICTED BY RF-SCORE:    0.00 PKD
ROOT
HETATM    1  O   UNL     1      -6.434   1.570  69.863  1.00  0.00    -0.024 OA 
HETATM    2  C   UNL     1      -7.530   2.482  69.858  1.00  0.00    -0.043 C  
HETATM    3  H   UNL     1      -6.121   1.469  70.755  1.00  0.00     0.000 HD 
ENDROOT
BRANCH   2   4
HETATM    4  C   UNL     1      -8.033   2.645  68.422  1.00  0.00    -0.053 C  
BRANCH   4   5
HETATM    5  N   UNL     1      -7.473   3.791  67.677  1.00  0.00    -0.066 NA 
HETATM    6  C   UNL     1      -8.490   4.294  66.722  1.00  0.00    -0.104 C  
HETATM    7  C   UNL     1      -9.658   5.048  67.404  1.00  0.00    -0.145 C  
HETATM    8  N   UNL     1      -9.224   6.180  68.258  1.00  0.00    -0.115 NA 
HETATM    9  C   UNL     1      -8.223   5.677  69.218  1.00  0.00    -0.096 C  
HETATM   10  C   UNL     1      -7.056   4.909  68.556  1.00  0.00    -0.057 C  
BRANCH   8  11
HETATM   11  C   UNL     1      -8.689   7.320  67.483  1.00  0.00    -0.121 C  
BRANCH  11  12
HETATM   12  C   UNL     1      -8.308   8.452  68.442  1.00  0.00    -0.131 C  
BRANCH  12  13
HETATM   13  C   UNL     1      -8.965   9.780  68.262  1.00  0.00    -0.119 C  
HETATM   14  C   UNL     1      -9.899  10.398  69.042  1.00  0.00    -0.222 C  
HETATM   15  C   UNL     1     -10.381  11.756  68.532  1.00  0.00    -0.228 A  
HETATM   16  C   UNL     1      -9.740  12.457  67.481  1.00  0.00    -0.191 A  
HETATM   17  C   UNL     1     -10.210  13.680  66.985  1.00  0.00    -0.250 A  
HETATM   18  C   UNL     1     -11.323  14.268  67.550  1.00  0.00    -0.346 A  
HETATM   19  C   UNL     1     -11.959  13.627  68.604  1.00  0.00    -0.395 A  
HETATM   20  C   UNL     1     -11.507  12.381  69.093  1.00  0.00    -0.302 A  
HETATM   21  S   UNL     1     -12.487  11.733  70.416  1.00  0.00    -0.142 SA 
HETATM   22  C   UNL     1     -11.630  10.268  70.923  1.00  0.00    -0.365 A  
HETATM   23  C   UNL     1     -10.489   9.736  70.298  1.00  0.00    -0.345 A  
HETATM   24  C   UNL     1      -9.976   8.563  70.907  1.00  0.00    -0.237 A  
HETATM   25  C   UNL     1     -10.588   7.916  71.987  1.00  0.00    -0.238 A  
HETATM   26  C   UNL     1     -11.714   8.449  72.566  1.00  0.00    -0.429 A  
HETATM   27 CL   UNL     1      -9.940   6.430  72.573  1.00  0.00    -0.178 Cl 
HETATM   28  C   UNL     1     -12.220   9.631  72.047  1.00  0.00    -0.330 A  
ENDBRANCH  12  13
ENDBRANCH  11  12
ENDBRANCH   8  11
ENDBRANCH   4   5
ENDBRANCH   2   4
TORSDOF 5
ENDMDL
MODEL      144
REMARK 921   NORMALIZED FREE ENERGY PREDICTED BY IDOCK:   -4.07 KCAL/MOL
REMARK 922        TOTAL FREE ENERGY PREDICTED BY IDOCK:   -5.81 KCAL/MOL
REMARK 923 INTER-LIGAND FREE ENERGY PREDICTED BY IDOCK:   -5.19 KCAL/MOL
REMARK 924 INTRA-LIGAND FREE ENERGY PREDICTED BY IDOCK:   -0.62 KCAL/MOL
REMARK 927      BINDING AFFINITY PREDICTED BY RF-SCORE:    0.00 PKD
ROOT
HETATM    1  O   UNL     1      -9.369   7.201  69.000  1.00  0.00    -0.142 OA 
HETATM    2  C   UNL     1      -8.265   6.981  68.125  1.00  0.00    -0.120 C  
HETATM    3  H   UNL     1      -9.377   6.522  69.664  1.00  0.00     0.000 HD 
ENDROOT
BRANCH   2   4
HETATM    4  C   UNL     1      -8.254   8.075  67.055  1.00  0.00    -0.116 C  
BRANCH   4   5
HETATM    5  N   UNL     1      -7.094   8.989  67.092  1.00  0.00    -0.078 NA 
HETATM    6  C   UNL     1      -7.175   9.923  65.943  1.00  0.00    -0.108 C  
HETATM    7  C   UNL     1      -8.282  10.995  66.096  1.00  0.00    -0.155 C  
HETATM    8  N   UNL     1      -8.174  11.797  67.339  1.00  0.00    -0.152 NA 
HETATM    9  C   UNL     1      -8.108  10.868  68.484  1.00  0.00    -0.137 C  
HETATM   10  C   UNL     1      -7.017   9.782  68.341  1.00  0.00    -0.068 C  
BRANCH   8  11
HETATM   11  C   UNL     1      -7.018  12.718  67.337  1.00  0.00    -0.129 C  
BRANCH  11  12
HETATM   12  C   UNL     1      -6.955  13.458  68.676  1.00  0.00    -0.101 C  
BRANCH  12  13
HETATM   13  C   UNL     1      -6.911  14.951  68.656  1.00  0.00    -0.108 C  
HETATM   14  C   UNL     1      -7.934  15.849  68.735  1.00  0.00    -0.188 C  
HETATM   15  C   UNL     1      -7.523  17.319  68.649  1.00  0.00    -0.251 A  
HETATM   16  C   UNL     1      -6.176  17.749  68.741  1.00  0.00    -0.203 A  
HETATM   17  C   UNL     1      -5.796  19.091  68.616  1.00  0.00    -0.224 A  
HETATM   18  C   UNL     1      -6.758  20.063  68.431  1.00  0.00    -0.337 A  
HETATM   19  C   UNL     1      -8.092  19.684  68.368  1.00  0.00    -0.352 A  
HETATM   20  C   UNL     1      -8.481  18.329  68.468  1.00  0.00    -0.307 A  
HETATM   21  S   UNL     1     -10.227  18.074  68.328  1.00  0.00    -0.394 SA 
HETATM   22  C   UNL     1     -10.444  16.342  68.628  1.00  0.00    -0.293 A  
HETATM   23  C   UNL     1      -9.406  15.413  68.819  1.00  0.00    -0.209 A  
HETATM   24  C   UNL     1      -9.841  14.086  69.062  1.00  0.00     0.005 A  
HETATM   25  C   UNL     1     -11.183  13.688  69.029  1.00  0.00    -0.273 A  
HETATM   26  C   UNL     1     -12.175  14.615  68.821  1.00  0.00    -0.154 A  
HETATM   27 CL   UNL     1     -11.587  12.023  69.224  1.00  0.00    -0.354 Cl 
HETATM   28  C   UNL     1     -11.807  15.939  68.641  1.00  0.00    -0.243 A  
ENDBRANCH  12  13
ENDBRANCH  11  12
ENDBRANCH   8  11
ENDBRANCH   4   5
ENDBRANCH   2   4
TORSDOF 5
ENDMDL
MODEL      145
REMARK 921   NORMALIZED FREE ENERGY PREDICTED BY IDOCK:   -4.03 KCAL/MOL
REMARK 922        TOTAL FREE ENERGY PREDICTED BY IDOCK:   -5.75 KCAL/MOL
REMARK 923 INTER-LIGAND FREE ENERGY PREDICTED BY IDOCK:   -5.79 KCAL/MOL
REMARK 924 INTRA-LIGAND FREE ENERGY PREDICTED BY IDOCK:    0.04 KCAL/MOL
REMARK 927      BINDING AFFINITY PREDICTED BY RF-SCORE:    0.00 PKD
ROOT
HETATM    1  O   UNL     1     -13.474  12.139  64.343  1.00  0.00    -0.675 OA 
HETATM    2  C   UNL     1     -12.505  12.707  63.466  1.00  0.00    -0.418 C  
HETATM    3  H   UNL     1     -14.071  12.821  64.627  1.00  0.00     0.000 HD 
ENDROOT
BRANCH   2   4
HETATM    4  C   UNL     1     -11.543  11.608  63.009  1.00  0.00     0.189 C  
BRANCH   4   5
HETATM    5  N   UNL     1     -10.127  11.806  63.382  1.00  0.00    -0.424 NA 
HETATM    6  C   UNL     1     -10.060  12.600  64.633  1.00  0.00    -0.235 C  
HETATM    7  C   UNL     1     -10.490  11.806  65.891  1.00  0.00    -0.255 C  
HETATM    8  N   UNL     1      -9.730  10.550  66.098  1.00  0.00    -0.199 NA 
HETATM    9  C   UNL     1      -9.809   9.753  64.858  1.00  0.00    -0.113 C  
HETATM   10  C   UNL     1      -9.396  10.534  63.589  1.00  0.00    -0.289 C  
BRANCH   8  11
HETATM   11  C   UNL     1      -8.324  10.780  66.491  1.00  0.00    -0.146 C  
BRANCH  11  12
HETATM   12  C   UNL     1      -8.259  11.081  67.992  1.00  0.00    -0.123 C  
BRANCH  12  13
HETATM   13  C   UNL     1      -9.304  11.971  68.579  1.00  0.00    -0.127 C  
HETATM   14  C   UNL     1     -10.247  11.694  69.524  1.00  0.00     0.380 C  
HETATM   15  C   UNL     1     -11.187  12.850  69.868  1.00  0.00     0.093 A  
HETATM   16  C   UNL     1     -10.956  14.182  69.448  1.00  0.00    -0.216 A  
HETATM   17  C   UNL     1     -11.842  15.231  69.725  1.00  0.00    -0.357 A  
HETATM   18  C   UNL     1     -12.978  14.992  70.470  1.00  0.00    -0.344 A  
HETATM   19  C   UNL     1     -13.222  13.704  70.928  1.00  0.00    -0.111 A  
HETATM   20  C   UNL     1     -12.347  12.635  70.631  1.00  0.00    -0.290 A  
HETATM   21  S   UNL     1     -12.871  11.078  71.286  1.00  0.00    -0.392 SA 
HETATM   22  C   UNL     1     -11.546   9.968  70.898  1.00  0.00    -0.378 A  
HETATM   23  C   UNL     1     -10.409  10.294  70.137  1.00  0.00    -0.210 A  
HETATM   24  C   UNL     1      -9.480   9.234  69.983  1.00  0.00    -0.236 A  
HETATM   25  C   UNL     1      -9.696   7.935  70.459  1.00  0.00    -0.174 A  
HETATM   26  C   UNL     1     -10.825   7.641  71.183  1.00  0.00    -0.251 A  
HETATM   27 CL   UNL     1      -8.549   6.695  70.112  1.00  0.00    -0.139 Cl 
HETATM   28  C   UNL     1     -11.736   8.660  71.418  1.00  0.00    -0.355 A  
ENDBRANCH  12  13
ENDBRANCH  11  12
ENDBRANCH   8  11
ENDBRANCH   4   5
ENDBRANCH   2   4
TORSDOF 5
ENDMDL
MODEL      146
REMARK 921   NORMALIZED FREE ENERGY PREDICTED BY IDOCK:   -4.02 KCAL/MOL
REMARK 922        TOTAL FREE ENERGY PREDICTED BY IDOCK:   -5.74 KCAL/MOL
REMARK 923 INTER-LIGAND FREE ENERGY PREDICTED BY IDOCK:   -4.97 KCAL/MOL
REMARK 924 INTRA-LIGAND FREE ENERGY PREDICTED BY IDOCK:   -0.77 KCAL/MOL
REMARK 927      BINDING AFFINITY PREDICTED BY RF-SCORE:    0.00 PKD
ROOT
HETATM    1  O   UNL     1     -11.316   4.297  65.202  1.00  0.00    -0.953 OA 
HETATM    2  C   UNL     1     -10.223   3.859  64.398  1.00  0.00    -0.230 C  
HETATM    3  H   UNL     1     -12.117   4.231  64.695  1.00  0.00     0.000 HD 
ENDROOT
BRANCH   2   4
HETATM    4  C   UNL     1      -8.933   3.965  65.215  1.00  0.00    -0.132 C  
BRANCH   4   5
HETATM    5  N   UNL     1      -7.846   4.745  64.590  1.00  0.00    -0.085 NA 
HETATM    6  C   UNL     1      -8.411   5.989  64.013  1.00  0.00     0.027 C  
HETATM    7  C   UNL     1      -8.822   7.034  65.079  1.00  0.00     0.346 C  
HETATM    8  N   UNL     1      -7.727   7.409  66.006  1.00  0.00    -0.091 NA 
HETATM    9  C   UNL     1      -7.174   6.173  66.593  1.00  0.00    -0.074 C  
HETATM   10  C   UNL     1      -6.771   5.112  65.542  1.00  0.00    -0.052 C  
BRANCH   8  11
HETATM   11  C   UNL     1      -6.666   8.208  65.358  1.00  0.00    -0.052 C  
BRANCH  11  12
HETATM   12  C   UNL     1      -6.726   9.648  65.877  1.00  0.00    -0.084 C  
BRANCH  12  13
HETATM   13  C   UNL     1      -7.923  10.472  65.533  1.00  0.00    -0.145 C  
HETATM   14  C   UNL     1      -8.968  10.854  66.322  1.00  0.00    -0.188 C  
HETATM   15  C   UNL     1     -10.049  11.678  65.622  1.00  0.00    -0.278 A  
HETATM   16  C   UNL     1      -9.878  12.235  64.331  1.00  0.00    -0.136 A  
HETATM   17  C   UNL     1     -10.886  12.951  63.673  1.00  0.00    -0.270 A  
HETATM   18  C   UNL     1     -12.095  13.170  64.301  1.00  0.00    -0.477 A  
HETATM   19  C   UNL     1     -12.288  12.667  65.580  1.00  0.00    -0.390 A  
HETATM   20  C   UNL     1     -11.285  11.922  66.241  1.00  0.00    -0.337 A  
HETATM   21  S   UNL     1     -11.760  11.352  67.848  1.00  0.00    -0.162 SA 
HETATM   22  C   UNL     1     -10.298  10.589  68.494  1.00  0.00    -0.179 A  
HETATM   23  C   UNL     1      -9.093  10.412  67.789  1.00  0.00    -0.134 A  
HETATM   24  C   UNL     1      -8.061   9.790  68.535  1.00  0.00    -0.104 A  
HETATM   25  C   UNL     1      -8.227   9.300  69.836  1.00  0.00    -0.145 A  
HETATM   26  C   UNL     1      -9.421   9.470  70.493  1.00  0.00    -0.306 A  
HETATM   27 CL   UNL     1      -6.935   8.456  70.605  1.00  0.00    -0.038 Cl 
HETATM   28  C   UNL     1     -10.445  10.130  69.830  1.00  0.00    -0.301 A  
ENDBRANCH  12  13
ENDBRANCH  11  12
ENDBRANCH   8  11
ENDBRANCH   4   5
ENDBRANCH   2   4
TORSDOF 5
ENDMDL
MODEL      147
REMARK 921   NORMALIZED FREE ENERGY PREDICTED BY IDOCK:   -4.01 KCAL/MOL
REMARK 922        TOTAL FREE ENERGY PREDICTED BY IDOCK:   -5.73 KCAL/MOL
REMARK 923 INTER-LIGAND FREE ENERGY PREDICTED BY IDOCK:   -6.11 KCAL/MOL
REMARK 924 INTRA-LIGAND FREE ENERGY PREDICTED BY IDOCK:    0.38 KCAL/MOL
REMARK 927      BINDING AFFINITY PREDICTED BY RF-SCORE:    0.00 PKD
ROOT
HETATM    1  O   UNL     1     -12.255  14.476  72.090  1.00  0.00    -0.309 OA 
HETATM    2  C   UNL     1     -12.814  15.467  71.231  1.00  0.00    -0.475 C  
HETATM    3  H   UNL     1     -12.959  13.951  72.454  1.00  0.00     0.000 HD 
ENDROOT
BRANCH   2   4
HETATM    4  C   UNL     1     -11.681  16.312  70.644  1.00  0.00    -0.160 C  
BRANCH   4   5
HETATM    5  N   UNL     1     -11.356  16.046  69.228  1.00  0.00    -0.347 NA 
HETATM    6  C   UNL     1     -11.101  17.334  68.538  1.00  0.00    -0.008 C  
HETATM    7  C   UNL     1      -9.755  17.990  68.934  1.00  0.00    -0.271 C  
HETATM    8  N   UNL     1      -8.577  17.114  68.730  1.00  0.00    -0.261 NA 
HETATM    9  C   UNL     1      -8.823  15.838  69.429  1.00  0.00    -0.237 C  
HETATM   10  C   UNL     1     -10.170  15.175  69.056  1.00  0.00    -0.241 C  
BRANCH   8  11
HETATM   11  C   UNL     1      -8.263  16.885  67.304  1.00  0.00    -0.184 C  
BRANCH  11  12
HETATM   12  C   UNL     1      -8.062  15.386  67.062  1.00  0.00    -0.265 C  
BRANCH  12  13
HETATM   13  C   UNL     1      -9.068  14.665  66.227  1.00  0.00    -0.196 C  
HETATM   14  C   UNL     1      -9.363  13.334  66.181  1.00  0.00    -0.081 C  
HETATM   15  C   UNL     1     -10.441  12.937  65.173  1.00  0.00    -0.326 A  
HETATM   16  C   UNL     1     -11.266  13.881  64.515  1.00  0.00    -0.372 A  
HETATM   17  C   UNL     1     -12.222  13.519  63.558  1.00  0.00    -0.410 A  
HETATM   18  C   UNL     1     -12.416  12.188  63.250  1.00  0.00    -0.528 A  
HETATM   19  C   UNL     1     -11.648  11.231  63.898  1.00  0.00     0.058 A  
HETATM   20  C   UNL     1     -10.664  11.589  64.846  1.00  0.00    -0.297 A  
HETATM   21  S   UNL     1      -9.784  10.210  65.521  1.00  0.00    -0.300 SA 
HETATM   22  C   UNL     1      -8.736  10.920  66.760  1.00  0.00    -0.147 A  
HETATM   23  C   UNL     1      -8.602  12.295  67.022  1.00  0.00    -0.191 A  
HETATM   24  C   UNL     1      -7.713  12.609  68.080  1.00  0.00    -0.142 A  
HETATM   25  C   UNL     1      -6.949  11.656  68.764  1.00  0.00    -0.098 A  
HETATM   26  C   UNL     1      -7.087  10.320  68.474  1.00  0.00    -0.074 A  
HETATM   27 CL   UNL     1      -5.813  12.164  69.957  1.00  0.00    -0.138 Cl 
HETATM   28  C   UNL     1      -7.992   9.954  67.489  1.00  0.00    -0.106 A  
ENDBRANCH  12  13
ENDBRANCH  11  12
ENDBRANCH   8  11
ENDBRANCH   4   5
ENDBRANCH   2   4
TORSDOF 5
ENDMDL
MODEL      148
REMARK 921   NORMALIZED FREE ENERGY PREDICTED BY IDOCK:   -3.97 KCAL/MOL
REMARK 922        TOTAL FREE ENERGY PREDICTED BY IDOCK:   -5.69 KCAL/MOL
REMARK 923 INTER-LIGAND FREE ENERGY PREDICTED BY IDOCK:   -4.98 KCAL/MOL
REMARK 924 INTRA-LIGAND FREE ENERGY PREDICTED BY IDOCK:   -0.71 KCAL/MOL
REMARK 927      BINDING AFFINITY PREDICTED BY RF-SCORE:    0.00 PKD
ROOT
HETATM    1  O   UNL     1      -5.829   6.930  73.087  1.00  0.00    -0.048 OA 
HETATM    2  C   UNL     1      -6.243   5.911  73.993  1.00  0.00    -0.065 C  
HETATM    3  H   UNL     1      -4.961   6.719  72.761  1.00  0.00     0.000 HD 
ENDROOT
BRANCH   2   4
HETATM    4  C   UNL     1      -7.640   6.251  74.518  1.00  0.00    -0.099 C  
BRANCH   4   5
HETATM    5  N   UNL     1      -8.743   5.437  73.967  1.00  0.00    -0.117 NA 
HETATM    6  C   UNL     1     -10.038   6.045  74.355  1.00  0.00    -0.304 C  
HETATM    7  C   UNL     1     -10.357   7.357  73.596  1.00  0.00    -0.316 C  
HETATM    8  N   UNL     1     -10.336   7.216  72.120  1.00  0.00    -0.194 NA 
HETATM    9  C   UNL     1      -9.041   6.624  71.731  1.00  0.00    -0.144 C  
HETATM   10  C   UNL     1      -8.700   5.321  72.490  1.00  0.00    -0.120 C  
BRANCH   8  11
HETATM   11  C   UNL     1     -11.463   6.415  71.596  1.00  0.00    -0.303 C  
BRANCH  11  12
HETATM   12  C   UNL     1     -12.026   7.091  70.343  1.00  0.00    -0.256 C  
BRANCH  12  13
HETATM   13  C   UNL     1     -12.000   8.582  70.273  1.00  0.00     0.293 C  
HETATM   14  C   UNL     1     -11.425   9.396  69.341  1.00  0.00     0.182 C  
HETATM   15  C   UNL     1     -11.568  10.895  69.605  1.00  0.00    -0.394 A  
HETATM   16  C   UNL     1     -12.442  11.425  70.586  1.00  0.00    -0.419 A  
HETATM   17  C   UNL     1     -12.538  12.796  70.857  1.00  0.00    -0.342 A  
HETATM   18  C   UNL     1     -11.788  13.694  70.128  1.00  0.00    -0.351 A  
HETATM   19  C   UNL     1     -10.944  13.215  69.135  1.00  0.00    -0.194 A  
HETATM   20  C   UNL     1     -10.822  11.832  68.872  1.00  0.00    -0.223 A  
HETATM   21  S   UNL     1      -9.666  11.447  67.590  1.00  0.00    -0.175 SA 
HETATM   22  C   UNL     1      -9.816   9.696  67.373  1.00  0.00    -0.171 A  
HETATM   23  C   UNL     1     -10.616   8.845  68.156  1.00  0.00    -0.211 A  
HETATM   24  C   UNL     1     -10.581   7.481  67.768  1.00  0.00    -0.274 A  
HETATM   25  C   UNL     1      -9.756   6.982  66.753  1.00  0.00    -0.184 A  
HETATM   26  C   UNL     1      -8.970   7.834  66.017  1.00  0.00    -0.185 A  
HETATM   27 CL   UNL     1      -9.709   5.286  66.445  1.00  0.00    -0.169 Cl 
HETATM   28  C   UNL     1      -9.017   9.188  66.314  1.00  0.00    -0.194 A  
ENDBRANCH  12  13
ENDBRANCH  11  12
ENDBRANCH   8  11
ENDBRANCH   4   5
ENDBRANCH   2   4
TORSDOF 5
ENDMDL
MODEL      149
REMARK 921   NORMALIZED FREE ENERGY PREDICTED BY IDOCK:   -3.94 KCAL/MOL
REMARK 922        TOTAL FREE ENERGY PREDICTED BY IDOCK:   -5.64 KCAL/MOL
REMARK 923 INTER-LIGAND FREE ENERGY PREDICTED BY IDOCK:   -5.48 KCAL/MOL
REMARK 924 INTRA-LIGAND FREE ENERGY PREDICTED BY IDOCK:   -0.15 KCAL/MOL
REMARK 927      BINDING AFFINITY PREDICTED BY RF-SCORE:    0.00 PKD
ROOT
HETATM    1  O   UNL     1      -5.195   5.616  69.104  1.00  0.00    -0.003 OA 
HETATM    2  C   UNL     1      -5.528   6.742  69.911  1.00  0.00    -0.015 C  
HETATM    3  H   UNL     1      -4.369   5.255  69.404  1.00  0.00     0.000 HD 
ENDROOT
BRANCH   2   4
HETATM    4  C   UNL     1      -6.859   7.324  69.429  1.00  0.00    -0.050 C  
BRANCH   4   5
HETATM    5  N   UNL     1      -7.340   8.510  70.165  1.00  0.00    -0.050 NA 
HETATM    6  C   UNL     1      -6.205   9.440  70.383  1.00  0.00    -0.061 C  
HETATM    7  C   UNL     1      -5.751  10.172  69.096  1.00  0.00    -0.037 C  
HETATM    8  N   UNL     1      -6.836  10.917  68.414  1.00  0.00    -0.066 NA 
HETATM    9  C   UNL     1      -7.960   9.989  68.183  1.00  0.00    -0.100 C  
HETATM   10  C   UNL     1      -8.418   9.239  69.456  1.00  0.00    -0.144 C  
BRANCH   8  11
HETATM   11  C   UNL     1      -7.281  12.112  69.163  1.00  0.00     0.022 C  
BRANCH  11  12
HETATM   12  C   UNL     1      -7.600  13.240  68.179  1.00  0.00    -0.141 C  
BRANCH  12  13
HETATM   13  C   UNL     1      -8.603  12.976  67.104  1.00  0.00    -0.195 C  
HETATM   14  C   UNL     1      -9.306  13.859  66.338  1.00  0.00    -0.226 C  
HETATM   15  C   UNL     1     -10.284  13.230  65.346  1.00  0.00    -0.304 A  
HETATM   16  C   UNL     1     -10.291  11.847  65.042  1.00  0.00    -0.330 A  
HETATM   17  C   UNL     1     -11.218  11.265  64.168  1.00  0.00    -0.222 A  
HETATM   18  C   UNL     1     -12.151  12.056  63.531  1.00  0.00    -0.628 A  
HETATM   19  C   UNL     1     -12.154  13.422  63.778  1.00  0.00    -0.516 A  
HETATM   20  C   UNL     1     -11.240  14.013  64.679  1.00  0.00    -0.374 A  
HETATM   21  S   UNL     1     -11.446  15.760  64.865  1.00  0.00    -0.113 SA 
HETATM   22  C   UNL     1     -10.108  16.253  65.914  1.00  0.00    -0.357 A  
HETATM   23  C   UNL     1      -9.186  15.381  66.520  1.00  0.00    -0.323 A  
HETATM   24  C   UNL     1      -8.192  16.024  67.301  1.00  0.00    -0.209 A  
HETATM   25  C   UNL     1      -8.162  17.403  67.541  1.00  0.00    -0.201 A  
HETATM   26  C   UNL     1      -9.088  18.229  66.951  1.00  0.00    -0.282 A  
HETATM   27 CL   UNL     1      -6.974  18.061  68.602  1.00  0.00    -0.251 Cl 
HETATM   28  C   UNL     1     -10.044  17.656  66.125  1.00  0.00    -0.307 A  
ENDBRANCH  12  13
ENDBRANCH  11  12
ENDBRANCH   8  11
ENDBRANCH   4   5
ENDBRANCH   2   4
TORSDOF 5
ENDMDL
MODEL      150
REMARK 921   NORMALIZED FREE ENERGY PREDICTED BY IDOCK:   -3.90 KCAL/MOL
REMARK 922        TOTAL FREE ENERGY PREDICTED BY IDOCK:   -5.59 KCAL/MOL
REMARK 923 INTER-LIGAND FREE ENERGY PREDICTED BY IDOCK:   -4.95 KCAL/MOL
REMARK 924 INTRA-LIGAND FREE ENERGY PREDICTED BY IDOCK:   -0.63 KCAL/MOL
REMARK 927      BINDING AFFINITY PREDICTED BY RF-SCORE:    0.00 PKD
ROOT
HETATM    1  O   UNL     1     -10.544  10.181  63.541  1.00  0.00    -0.128 OA 
HETATM    2  C   UNL     1      -9.280   9.553  63.342  1.00  0.00     0.015 C  
HETATM    3  H   UNL     1     -11.202   9.720  63.034  1.00  0.00     0.000 HD 
ENDROOT
BRANCH   2   4
HETATM    4  C   UNL     1      -8.221  10.296  64.159  1.00  0.00    -0.152 C  
BRANCH   4   5
HETATM    5  N   UNL     1      -7.529   9.491  65.186  1.00  0.00    -0.105 NA 
HETATM    6  C   UNL     1      -6.590  10.361  65.934  1.00  0.00    -0.123 C  
HETATM    7  C   UNL     1      -7.295  11.350  66.894  1.00  0.00    -0.147 C  
HETATM    8  N   UNL     1      -8.199  10.697  67.871  1.00  0.00    -0.111 NA 
HETATM    9  C   UNL     1      -9.144   9.842  67.127  1.00  0.00    -0.138 C  
HETATM   10  C   UNL     1      -8.457   8.857  66.153  1.00  0.00    -0.125 C  
BRANCH   8  11
HETATM   11  C   UNL     1      -7.477   9.918  68.899  1.00  0.00    -0.081 C  
BRANCH  11  12
HETATM   12  C   UNL     1      -8.415   9.641  70.079  1.00  0.00    -0.223 C  
BRANCH  12  13
HETATM   13  C   UNL     1      -8.684   8.220  70.448  1.00  0.00    -0.139 C  
HETATM   14  C   UNL     1      -9.811   7.659  70.973  1.00  0.00    -0.181 C  
HETATM   15  C   UNL     1      -9.723   6.160  71.261  1.00  0.00    -0.196 A  
HETATM   16  C   UNL     1      -8.663   5.346  70.790  1.00  0.00    -0.139 A  
HETATM   17  C   UNL     1      -8.560   3.982  71.093  1.00  0.00    -0.110 A  
HETATM   18  C   UNL     1      -9.538   3.371  71.850  1.00  0.00    -0.220 A  
HETATM   19  C   UNL     1     -10.609   4.130  72.302  1.00  0.00    -0.072 A  
HETATM   20  C   UNL     1     -10.708   5.512  72.023  1.00  0.00    -0.234 A  
HETATM   21  S   UNL     1     -12.136   6.284  72.725  1.00  0.00     0.387 SA 
HETATM   22  C   UNL     1     -12.086   7.944  72.111  1.00  0.00    -0.326 A  
HETATM   23  C   UNL     1     -11.053   8.492  71.330  1.00  0.00    -0.328 A  
HETATM   24  C   UNL     1     -11.257   9.841  70.945  1.00  0.00    -0.429 A  
HETATM   25  C   UNL     1     -12.344  10.615  71.369  1.00  0.00    -0.350 A  
HETATM   26  C   UNL     1     -13.329  10.058  72.147  1.00  0.00    -0.469 A  
HETATM   27 CL   UNL     1     -12.429  12.281  70.933  1.00  0.00    -0.433 Cl 
HETATM   28  C   UNL     1     -13.209   8.722  72.499  1.00  0.00    -0.398 A  
ENDBRANCH  12  13
ENDBRANCH  11  12
ENDBRANCH   8  11
ENDBRANCH   4   5
ENDBRANCH   2   4
TORSDOF 5
ENDMDL
MODEL      151
REMARK 921   NORMALIZED FREE ENERGY PREDICTED BY IDOCK:   -3.89 KCAL/MOL
REMARK 922        TOTAL FREE ENERGY PREDICTED BY IDOCK:   -5.57 KCAL/MOL
REMARK 923 INTER-LIGAND FREE ENERGY PREDICTED BY IDOCK:   -6.93 KCAL/MOL
REMARK 924 INTRA-LIGAND FREE ENERGY PREDICTED BY IDOCK:    1.36 KCAL/MOL
REMARK 927      BINDING AFFINITY PREDICTED BY RF-SCORE:    0.00 PKD
ROOT
HETATM    1  O   UNL     1      -7.386  15.144  69.503  1.00  0.00    -0.188 OA 
HETATM    2  C   UNL     1      -6.896  15.384  68.186  1.00  0.00    -0.127 C  
HETATM    3  H   UNL     1      -6.951  15.733  70.107  1.00  0.00     0.000 HD 
ENDROOT
BRANCH   2   4
HETATM    4  C   UNL     1      -7.598  14.435  67.213  1.00  0.00    -0.108 C  
BRANCH   4   5
HETATM    5  N   UNL     1      -8.666  13.599  67.798  1.00  0.00    -0.172 NA 
HETATM    6  C   UNL     1      -9.853  13.637  66.910  1.00  0.00    -0.261 C  
HETATM    7  C   UNL     1      -9.668  12.837  65.597  1.00  0.00    -0.120 C  
HETATM    8  N   UNL     1      -9.290  11.418  65.806  1.00  0.00    -0.226 NA 
HETATM    9  C   UNL     1      -8.100  11.380  66.678  1.00  0.00    -0.155 C  
HETATM   10  C   UNL     1      -8.263  12.186  67.988  1.00  0.00    -0.158 C  
BRANCH   8  11
HETATM   11  C   UNL     1     -10.386  10.603  66.371  1.00  0.00    -0.231 C  
BRANCH  11  12
HETATM   12  C   UNL     1     -10.126  10.363  67.861  1.00  0.00    -0.200 C  
BRANCH  12  13
HETATM   13  C   UNL     1     -10.927  11.142  68.851  1.00  0.00    -0.276 C  
HETATM   14  C   UNL     1     -11.587  10.709  69.965  1.00  0.00    -0.406 C  
HETATM   15  C   UNL     1     -12.341  11.790  70.739  1.00  0.00    -0.433 A  
HETATM   16  C   UNL     1     -12.173  13.175  70.491  1.00  0.00    -0.405 A  
HETATM   17  C   UNL     1     -12.899  14.162  71.170  1.00  0.00    -0.431 A  
HETATM   18  C   UNL     1     -13.797  13.800  72.153  1.00  0.00    -0.649 A  
HETATM   19  C   UNL     1     -13.966  12.454  72.446  1.00  0.00     0.081 A  
HETATM   20  C   UNL     1     -13.256  11.450  71.748  1.00  0.00    -0.367 A  
HETATM   21  S   UNL     1     -13.652   9.805  72.264  1.00  0.00    -0.182 SA 
HETATM   22  C   UNL     1     -12.538   8.776  71.348  1.00  0.00    -0.294 A  
HETATM   23  C   UNL     1     -11.639   9.226  70.364  1.00  0.00    -0.215 A  
HETATM   24  C   UNL     1     -10.839   8.207  69.788  1.00  0.00    -0.190 A  
HETATM   25  C   UNL     1     -10.975   6.846  70.090  1.00  0.00    -0.281 A  
HETATM   26  C   UNL     1     -11.875   6.435  71.042  1.00  0.00    -0.321 A  
HETATM   27 CL   UNL     1     -10.026   5.683  69.242  1.00  0.00    -0.227 Cl 
HETATM   28  C   UNL     1     -12.638   7.399  71.682  1.00  0.00    -0.391 A  
ENDBRANCH  12  13
ENDBRANCH  11  12
ENDBRANCH   8  11
ENDBRANCH   4   5
ENDBRANCH   2   4
TORSDOF 5
ENDMDL
MODEL      152
REMARK 921   NORMALIZED FREE ENERGY PREDICTED BY IDOCK:   -3.88 KCAL/MOL
REMARK 922        TOTAL FREE ENERGY PREDICTED BY IDOCK:   -5.57 KCAL/MOL
REMARK 923 INTER-LIGAND FREE ENERGY PREDICTED BY IDOCK:   -5.58 KCAL/MOL
REMARK 924 INTRA-LIGAND FREE ENERGY PREDICTED BY IDOCK:    0.01 KCAL/MOL
REMARK 927      BINDING AFFINITY PREDICTED BY RF-SCORE:    0.00 PKD
ROOT
HETATM    1  O   UNL     1     -11.025   5.046  74.414  1.00  0.00    -0.377 OA 
HETATM    2  C   UNL     1     -10.257   6.246  74.361  1.00  0.00    -0.321 C  
HETATM    3  H   UNL     1     -10.897   4.635  75.262  1.00  0.00     0.000 HD 
ENDROOT
BRANCH   2   4
HETATM    4  C   UNL     1     -10.462   6.907  72.997  1.00  0.00    -0.264 C  
BRANCH   4   5
HETATM    5  N   UNL     1      -9.592   6.410  71.911  1.00  0.00    -0.153 NA 
HETATM    6  C   UNL     1     -10.398   5.578  70.985  1.00  0.00    -0.239 C  
HETATM    7  C   UNL     1     -11.371   6.399  70.104  1.00  0.00    -0.420 C  
HETATM    8  N   UNL     1     -10.710   7.465  69.313  1.00  0.00    -0.213 NA 
HETATM    9  C   UNL     1      -9.919   8.303  70.235  1.00  0.00    -0.186 C  
HETATM   10  C   UNL     1      -8.952   7.497  71.133  1.00  0.00    -0.142 C  
BRANCH   8  11
HETATM   11  C   UNL     1      -9.865   6.937  68.220  1.00  0.00    -0.138 C  
BRANCH  11  12
HETATM   12  C   UNL     1     -10.305   7.560  66.892  1.00  0.00    -0.379 C  
BRANCH  12  13
HETATM   13  C   UNL     1     -10.387   9.048  66.804  1.00  0.00    -0.310 C  
HETATM   14  C   UNL     1      -9.404   9.981  66.953  1.00  0.00    -0.188 C  
HETATM   15  C   UNL     1      -9.858  11.436  66.828  1.00  0.00    -0.232 A  
HETATM   16  C   UNL     1     -11.135  11.805  66.340  1.00  0.00    -0.360 A  
HETATM   17  C   UNL     1     -11.566  13.136  66.269  1.00  0.00    -0.399 A  
HETATM   18  C   UNL     1     -10.717  14.154  66.650  1.00  0.00    -0.289 A  
HETATM   19  C   UNL     1      -9.444  13.833  67.103  1.00  0.00    -0.244 A  
HETATM   20  C   UNL     1      -9.011  12.492  67.202  1.00  0.00    -0.200 A  
HETATM   21  S   UNL     1      -7.368  12.315  67.835  1.00  0.00    -0.125 SA 
HETATM   22  C   UNL     1      -7.035  10.580  67.719  1.00  0.00    -0.078 A  
HETATM   23  C   UNL     1      -7.957   9.601  67.308  1.00  0.00    -0.106 A  
HETATM   24  C   UNL     1      -7.441   8.281  67.280  1.00  0.00    -0.089 A  
HETATM   25  C   UNL     1      -6.152   7.939  67.709  1.00  0.00    -0.046 A  
HETATM   26  C   UNL     1      -5.279   8.915  68.123  1.00  0.00    -0.034 A  
HETATM   27 CL   UNL     1      -5.671   6.284  67.740  1.00  0.00    -0.008 Cl 
HETATM   28  C   UNL     1      -5.714  10.232  68.109  1.00  0.00    -0.037 A  
ENDBRANCH  12  13
ENDBRANCH  11  12
ENDBRANCH   8  11
ENDBRANCH   4   5
ENDBRANCH   2   4
TORSDOF 5
ENDMDL
MODEL      153
REMARK 921   NORMALIZED FREE ENERGY PREDICTED BY IDOCK:   -3.88 KCAL/MOL
REMARK 922        TOTAL FREE ENERGY PREDICTED BY IDOCK:   -5.56 KCAL/MOL
REMARK 923 INTER-LIGAND FREE ENERGY PREDICTED BY IDOCK:   -5.10 KCAL/MOL
REMARK 924 INTRA-LIGAND FREE ENERGY PREDICTED BY IDOCK:   -0.46 KCAL/MOL
REMARK 927      BINDING AFFINITY PREDICTED BY RF-SCORE:    0.00 PKD
ROOT
HETATM    1  O   UNL     1     -10.729  19.853  66.114  1.00  0.00    -0.442 OA 
HETATM    2  C   UNL     1      -9.793  20.249  67.114  1.00  0.00    -0.466 C  
HETATM    3  H   UNL     1     -11.482  20.431  66.150  1.00  0.00     0.000 HD 
ENDROOT
BRANCH   2   4
HETATM    4  C   UNL     1      -8.580  19.318  67.057  1.00  0.00    -0.285 C  
BRANCH   4   5
HETATM    5  N   UNL     1      -8.448  18.374  68.185  1.00  0.00    -0.277 NA 
HETATM    6  C   UNL     1      -9.170  17.120  67.857  1.00  0.00    -0.241 C  
HETATM    7  C   UNL     1      -8.456  16.258  66.787  1.00  0.00    -0.247 C  
HETATM    8  N   UNL     1      -7.057  15.910  67.134  1.00  0.00    -0.210 NA 
HETATM    9  C   UNL     1      -6.333  17.157  67.446  1.00  0.00    -0.148 C  
HETATM   10  C   UNL     1      -7.040  18.038  68.502  1.00  0.00    -0.256 C  
BRANCH   8  11
HETATM   11  C   UNL     1      -6.957  14.946  68.251  1.00  0.00    -0.117 C  
BRANCH  11  12
HETATM   12  C   UNL     1      -6.865  13.524  67.689  1.00  0.00    -0.178 C  
BRANCH  12  13
HETATM   13  C   UNL     1      -6.682  12.396  68.650  1.00  0.00    -0.083 C  
HETATM   14  C   UNL     1      -7.279  11.170  68.672  1.00  0.00    -0.098 C  
HETATM   15  C   UNL     1      -6.874  10.266  69.836  1.00  0.00    -0.134 A  
HETATM   16  C   UNL     1      -5.778  10.550  70.687  1.00  0.00    -0.101 A  
HETATM   17  C   UNL     1      -5.436   9.744  71.780  1.00  0.00    -0.041 A  
HETATM   18  C   UNL     1      -6.158   8.598  72.041  1.00  0.00    -0.070 A  
HETATM   19  C   UNL     1      -7.219   8.269  71.209  1.00  0.00    -0.073 A  
HETATM   20  C   UNL     1      -7.587   9.090  70.119  1.00  0.00    -0.082 A  
HETATM   21  S   UNL     1      -8.987   8.496  69.216  1.00  0.00    -0.146 SA 
HETATM   22  C   UNL     1      -9.137   9.612  67.850  1.00  0.00    -0.125 A  
HETATM   23  C   UNL     1      -8.350  10.760  67.648  1.00  0.00    -0.119 A  
HETATM   24  C   UNL     1      -8.651  11.480  66.465  1.00  0.00    -0.172 A  
HETATM   25  C   UNL     1      -9.701  11.150  65.598  1.00  0.00    -0.225 A  
HETATM   26  C   UNL     1     -10.465  10.033  65.831  1.00  0.00    -0.115 A  
HETATM   27 CL   UNL     1     -10.050  12.166  64.250  1.00  0.00    -0.322 Cl 
HETATM   28  C   UNL     1     -10.170   9.257  66.942  1.00  0.00    -0.327 A  
ENDBRANCH  12  13
ENDBRANCH  11  12
ENDBRANCH   8  11
ENDBRANCH   4   5
ENDBRANCH   2   4
TORSDOF 5
ENDMDL
MODEL      154
REMARK 921   NORMALIZED FREE ENERGY PREDICTED BY IDOCK:   -3.87 KCAL/MOL
REMARK 922        TOTAL FREE ENERGY PREDICTED BY IDOCK:   -5.55 KCAL/MOL
REMARK 923 INTER-LIGAND FREE ENERGY PREDICTED BY IDOCK:   -5.53 KCAL/MOL
REMARK 924 INTRA-LIGAND FREE ENERGY PREDICTED BY IDOCK:   -0.02 KCAL/MOL
REMARK 927      BINDING AFFINITY PREDICTED BY RF-SCORE:    0.00 PKD
ROOT
HETATM    1  O   UNL     1      -8.682   7.990  74.414  1.00  0.00    -0.423 OA 
HETATM    2  C   UNL     1      -8.055   6.717  74.550  1.00  0.00    -0.134 C  
HETATM    3  H   UNL     1      -8.374   8.562  75.108  1.00  0.00     0.000 HD 
ENDROOT
BRANCH   2   4
HETATM    4  C   UNL     1      -8.551   5.798  73.432  1.00  0.00    -0.117 C  
BRANCH   4   5
HETATM    5  N   UNL     1      -9.847   6.170  72.829  1.00  0.00    -0.166 NA 
HETATM    6  C   UNL     1      -9.626   7.236  71.822  1.00  0.00    -0.150 C  
HETATM    7  C   UNL     1      -8.940   6.731  70.529  1.00  0.00    -0.152 C  
HETATM    8  N   UNL     1      -9.653   5.611  69.869  1.00  0.00    -0.155 NA 
HETATM    9  C   UNL     1      -9.859   4.543  70.866  1.00  0.00    -0.199 C  
HETATM   10  C   UNL     1     -10.531   5.032  72.170  1.00  0.00    -0.210 C  
BRANCH   8  11
HETATM   11  C   UNL     1     -10.935   6.018  69.256  1.00  0.00    -0.366 C  
BRANCH  11  12
HETATM   12  C   UNL     1     -10.661   6.988  68.103  1.00  0.00    -0.250 C  
BRANCH  12  13
HETATM   13  C   UNL     1     -10.880   8.446  68.341  1.00  0.00     0.031 C  
HETATM   14  C   UNL     1     -10.405   9.519  67.645  1.00  0.00    -0.299 C  
HETATM   15  C   UNL     1     -10.807  10.887  68.196  1.00  0.00    -0.283 A  
HETATM   16  C   UNL     1     -11.803  11.055  69.190  1.00  0.00    -0.407 A  
HETATM   17  C   UNL     1     -12.138  12.304  69.726  1.00  0.00    -0.298 A  
HETATM   18  C   UNL     1     -11.513  13.442  69.259  1.00  0.00    -0.345 A  
HETATM   19  C   UNL     1     -10.555  13.321  68.262  1.00  0.00    -0.262 A  
HETATM   20  C   UNL     1     -10.193  12.062  67.733  1.00  0.00    -0.202 A  
HETATM   21  S   UNL     1      -8.929  12.141  66.498  1.00  0.00    -0.137 SA 
HETATM   22  C   UNL     1      -8.776  10.476  65.916  1.00  0.00    -0.167 A  
HETATM   23  C   UNL     1      -9.460   9.364  66.442  1.00  0.00    -0.259 A  
HETATM   24  C   UNL     1      -9.180   8.138  65.789  1.00  0.00    -0.098 A  
HETATM   25  C   UNL     1      -8.236   7.999  64.764  1.00  0.00    -0.121 A  
HETATM   26  C   UNL     1      -7.569   9.099  64.283  1.00  0.00    -0.115 A  
HETATM   27 CL   UNL     1      -7.893   6.436  64.121  1.00  0.00    -0.115 Cl 
HETATM   28  C   UNL     1      -7.854  10.335  64.845  1.00  0.00    -0.134 A  
ENDBRANCH  12  13
ENDBRANCH  11  12
ENDBRANCH   8  11
ENDBRANCH   4   5
ENDBRANCH   2   4
TORSDOF 5
ENDMDL
MODEL      155
REMARK 921   NORMALIZED FREE ENERGY PREDICTED BY IDOCK:   -3.86 KCAL/MOL
REMARK 922        TOTAL FREE ENERGY PREDICTED BY IDOCK:   -5.54 KCAL/MOL
REMARK 923 INTER-LIGAND FREE ENERGY PREDICTED BY IDOCK:   -5.31 KCAL/MOL
REMARK 924 INTRA-LIGAND FREE ENERGY PREDICTED BY IDOCK:   -0.22 KCAL/MOL
REMARK 927      BINDING AFFINITY PREDICTED BY RF-SCORE:    0.00 PKD
ROOT
HETATM    1  O   UNL     1      -6.589   1.490  69.663  1.00  0.00    -0.028 OA 
HETATM    2  C   UNL     1      -7.928   1.537  69.174  1.00  0.00    -0.045 C  
HETATM    3  H   UNL     1      -6.607   1.509  70.613  1.00  0.00     0.000 HD 
ENDROOT
BRANCH   2   4
HETATM    4  C   UNL     1      -7.899   1.507  67.644  1.00  0.00    -0.059 C  
BRANCH   4   5
HETATM    5  N   UNL     1      -7.271   2.677  66.997  1.00  0.00    -0.056 NA 
HETATM    6  C   UNL     1      -7.806   2.816  65.621  1.00  0.00    -0.081 C  
HETATM    7  C   UNL     1      -9.269   3.322  65.575  1.00  0.00    -0.151 C  
HETATM    8  N   UNL     1      -9.483   4.605  66.288  1.00  0.00    -0.152 NA 
HETATM    9  C   UNL     1      -8.964   4.462  67.662  1.00  0.00    -0.118 C  
HETATM   10  C   UNL     1      -7.508   3.945  67.727  1.00  0.00    -0.067 C  
BRANCH   8  11
HETATM   11  C   UNL     1      -8.862   5.760  65.605  1.00  0.00    -0.136 C  
BRANCH  11  12
HETATM   12  C   UNL     1      -8.560   6.855  66.631  1.00  0.00    -0.124 C  
BRANCH  12  13
HETATM   13  C   UNL     1      -9.193   8.194  66.440  1.00  0.00    -0.250 C  
HETATM   14  C   UNL     1      -9.741   9.034  67.366  1.00  0.00    -0.217 C  
HETATM   15  C   UNL     1     -10.337  10.326  66.806  1.00  0.00    -0.288 A  
HETATM   16  C   UNL     1     -10.120  10.761  65.475  1.00  0.00    -0.335 A  
HETATM   17  C   UNL     1     -10.703  11.921  64.950  1.00  0.00    -0.350 A  
HETATM   18  C   UNL     1     -11.499  12.713  65.752  1.00  0.00    -0.399 A  
HETATM   19  C   UNL     1     -11.708  12.336  67.072  1.00  0.00    -0.399 A  
HETATM   20  C   UNL     1     -11.144  11.154  67.602  1.00  0.00    -0.287 A  
HETATM   21  S   UNL     1     -11.570  10.853  69.293  1.00  0.00    -0.335 SA 
HETATM   22  C   UNL     1     -10.632   9.418  69.735  1.00  0.00    -0.231 A  
HETATM   23  C   UNL     1      -9.831   8.667  68.856  1.00  0.00    -0.184 A  
HETATM   24  C   UNL     1      -9.164   7.571  69.458  1.00  0.00    -0.146 A  
HETATM   25  C   UNL     1      -9.341   7.190  70.794  1.00  0.00    -0.160 A  
HETATM   26  C   UNL     1     -10.145   7.932  71.625  1.00  0.00    -0.228 A  
HETATM   27 CL   UNL     1      -8.567   5.769  71.389  1.00  0.00    -0.128 Cl 
HETATM   28  C   UNL     1     -10.772   9.052  71.101  1.00  0.00    -0.358 A  
ENDBRANCH  12  13
ENDBRANCH  11  12
ENDBRANCH   8  11
ENDBRANCH   4   5
ENDBRANCH   2   4
TORSDOF 5
ENDMDL
MODEL      156
REMARK 921   NORMALIZED FREE ENERGY PREDICTED BY IDOCK:   -3.84 KCAL/MOL
REMARK 922        TOTAL FREE ENERGY PREDICTED BY IDOCK:   -5.52 KCAL/MOL
REMARK 923 INTER-LIGAND FREE ENERGY PREDICTED BY IDOCK:   -4.93 KCAL/MOL
REMARK 924 INTRA-LIGAND FREE ENERGY PREDICTED BY IDOCK:   -0.59 KCAL/MOL
REMARK 927      BINDING AFFINITY PREDICTED BY RF-SCORE:    0.00 PKD
ROOT
HETATM    1  O   UNL     1      -9.847   3.138  62.494  1.00  0.00    -0.092 OA 
HETATM    2  C   UNL     1      -9.309   2.853  63.783  1.00  0.00    -0.106 C  
HETATM    3  H   UNL     1      -9.812   2.350  61.964  1.00  0.00     0.000 HD 
ENDROOT
BRANCH   2   4
HETATM    4  C   UNL     1      -9.366   4.122  64.637  1.00  0.00    -0.163 C  
BRANCH   4   5
HETATM    5  N   UNL     1     -10.007   3.971  65.959  1.00  0.00    -0.168 NA 
HETATM    6  C   UNL     1      -8.966   3.674  66.973  1.00  0.00    -0.144 C  
HETATM    7  C   UNL     1      -8.074   4.892  67.319  1.00  0.00    -0.106 C  
HETATM    8  N   UNL     1      -8.834   6.082  67.770  1.00  0.00    -0.107 NA 
HETATM    9  C   UNL     1      -9.860   6.389  66.755  1.00  0.00    -0.162 C  
HETATM   10  C   UNL     1     -10.751   5.179  66.388  1.00  0.00    -0.210 C  
BRANCH   8  11
HETATM   11  C   UNL     1      -9.444   5.910  69.105  1.00  0.00    -0.128 C  
BRANCH  11  12
HETATM   12  C   UNL     1      -8.942   7.015  70.040  1.00  0.00    -0.142 C  
BRANCH  12  13
HETATM   13  C   UNL     1      -8.332   8.233  69.428  1.00  0.00    -0.122 C  
HETATM   14  C   UNL     1      -8.822   9.504  69.352  1.00  0.00    -0.172 C  
HETATM   15  C   UNL     1      -7.932  10.505  68.616  1.00  0.00    -0.124 A  
HETATM   16  C   UNL     1      -6.589  10.228  68.261  1.00  0.00    -0.057 A  
HETATM   17  C   UNL     1      -5.790  11.129  67.547  1.00  0.00    -0.048 A  
HETATM   18  C   UNL     1      -6.294  12.363  67.193  1.00  0.00    -0.093 A  
HETATM   19  C   UNL     1      -7.596  12.684  67.552  1.00  0.00    -0.160 A  
HETATM   20  C   UNL     1      -8.418  11.771  68.250  1.00  0.00    -0.161 A  
HETATM   21  S   UNL     1     -10.048  12.377  68.573  1.00  0.00    -0.141 SA 
HETATM   22  C   UNL     1     -10.799  11.116  69.564  1.00  0.00    -0.188 A  
HETATM   23  C   UNL     1     -10.211   9.881  69.892  1.00  0.00    -0.298 A  
HETATM   24  C   UNL     1     -11.009   9.050  70.717  1.00  0.00    -0.315 A  
HETATM   25  C   UNL     1     -12.315   9.367  71.112  1.00  0.00    -0.308 A  
HETATM   26  C   UNL     1     -12.871  10.573  70.760  1.00  0.00    -0.454 A  
HETATM   27 CL   UNL     1     -13.235   8.226  72.019  1.00  0.00    -0.343 Cl 
HETATM   28  C   UNL     1     -12.107  11.451  70.006  1.00  0.00    -0.417 A  
ENDBRANCH  12  13
ENDBRANCH  11  12
ENDBRANCH   8  11
ENDBRANCH   4   5
ENDBRANCH   2   4
TORSDOF 5
ENDMDL
MODEL      157
REMARK 921   NORMALIZED FREE ENERGY PREDICTED BY IDOCK:   -3.84 KCAL/MOL
REMARK 922        TOTAL FREE ENERGY PREDICTED BY IDOCK:   -5.51 KCAL/MOL
REMARK 923 INTER-LIGAND FREE ENERGY PREDICTED BY IDOCK:   -5.00 KCAL/MOL
REMARK 924 INTRA-LIGAND FREE ENERGY PREDICTED BY IDOCK:   -0.51 KCAL/MOL
REMARK 927      BINDING AFFINITY PREDICTED BY RF-SCORE:    0.00 PKD
ROOT
HETATM    1  O   UNL     1     -12.043   9.300  70.029  1.00  0.00    -0.425 OA 
HETATM    2  C   UNL     1     -12.109  10.720  69.913  1.00  0.00    -0.337 C  
HETATM    3  H   UNL     1     -12.181   9.058  70.938  1.00  0.00     0.000 HD 
ENDROOT
BRANCH   2   4
HETATM    4  C   UNL     1     -11.887  11.110  68.450  1.00  0.00    -0.232 C  
BRANCH   4   5
HETATM    5  N   UNL     1     -11.820  12.560  68.181  1.00  0.00    -0.341 NA 
HETATM    6  C   UNL     1     -10.481  13.065  68.570  1.00  0.00    -0.249 C  
HETATM    7  C   UNL     1      -9.352  12.629  67.604  1.00  0.00    -0.190 C  
HETATM    8  N   UNL     1      -9.594  13.001  66.190  1.00  0.00    -0.240 NA 
HETATM    9  C   UNL     1     -10.920  12.486  65.797  1.00  0.00    -0.292 C  
HETATM   10  C   UNL     1     -12.058  12.901  66.759  1.00  0.00    -0.265 C  
BRANCH   8  11
HETATM   11  C   UNL     1      -9.498  14.456  65.947  1.00  0.00    -0.154 C  
BRANCH  11  12
HETATM   12  C   UNL     1      -8.306  15.023  66.724  1.00  0.00    -0.189 C  
BRANCH  12  13
HETATM   13  C   UNL     1      -7.613  16.226  66.174  1.00  0.00     0.248 C  
HETATM   14  C   UNL     1      -7.705  17.531  66.558  1.00  0.00    -0.310 C  
HETATM   15  C   UNL     1      -6.868  18.515  65.741  1.00  0.00    -0.310 A  
HETATM   16  C   UNL     1      -5.871  18.101  64.823  1.00  0.00     0.130 A  
HETATM   17  C   UNL     1      -5.137  19.002  64.042  1.00  0.00    -0.254 A  
HETATM   18  C   UNL     1      -5.347  20.358  64.177  1.00  0.00    -0.229 A  
HETATM   19  C   UNL     1      -6.293  20.804  65.089  1.00  0.00    -0.283 A  
HETATM   20  C   UNL     1      -7.057  19.901  65.863  1.00  0.00    -0.298 A  
HETATM   21  S   UNL     1      -8.225  20.687  66.935  1.00  0.00    -0.050 SA 
HETATM   22  C   UNL     1      -8.927  19.358  67.872  1.00  0.00    -0.319 A  
HETATM   23  C   UNL     1      -8.651  17.992  67.679  1.00  0.00    -0.247 A  
HETATM   24  C   UNL     1      -9.326  17.124  68.573  1.00  0.00    -0.274 A  
HETATM   25  C   UNL     1     -10.265  17.555  69.518  1.00  0.00     0.037 A  
HETATM   26  C   UNL     1     -10.528  18.894  69.672  1.00  0.00     0.827 A  
HETATM   27 CL   UNL     1     -11.111  16.397  70.474  1.00  0.00    -0.307 Cl 
HETATM   28  C   UNL     1      -9.846  19.792  68.864  1.00  0.00    -0.454 A  
ENDBRANCH  12  13
ENDBRANCH  11  12
ENDBRANCH   8  11
ENDBRANCH   4   5
ENDBRANCH   2   4
TORSDOF 5
ENDMDL
MODEL      158
REMARK 921   NORMALIZED FREE ENERGY PREDICTED BY IDOCK:   -3.79 KCAL/MOL
REMARK 922        TOTAL FREE ENERGY PREDICTED BY IDOCK:   -5.44 KCAL/MOL
REMARK 923 INTER-LIGAND FREE ENERGY PREDICTED BY IDOCK:   -5.19 KCAL/MOL
REMARK 924 INTRA-LIGAND FREE ENERGY PREDICTED BY IDOCK:   -0.25 KCAL/MOL
REMARK 927      BINDING AFFINITY PREDICTED BY RF-SCORE:    0.00 PKD
ROOT
HETATM    1  O   UNL     1      -9.540   9.407  63.185  1.00  0.00    -0.450 OA 
HETATM    2  C   UNL     1      -8.400   8.568  63.357  1.00  0.00    -0.091 C  
HETATM    3  H   UNL     1     -10.318   8.864  63.135  1.00  0.00     0.000 HD 
ENDROOT
BRANCH   2   4
HETATM    4  C   UNL     1      -7.147   9.443  63.437  1.00  0.00    -0.096 C  
BRANCH   4   5
HETATM    5  N   UNL     1      -6.192   9.090  64.508  1.00  0.00    -0.070 NA 
HETATM    6  C   UNL     1      -5.934  10.288  65.342  1.00  0.00    -0.115 C  
HETATM    7  C   UNL     1      -7.125  10.676  66.253  1.00  0.00    -0.137 C  
HETATM    8  N   UNL     1      -7.580   9.580  67.143  1.00  0.00    -0.091 NA 
HETATM    9  C   UNL     1      -7.852   8.392  66.312  1.00  0.00    -0.098 C  
HETATM   10  C   UNL     1      -6.678   7.999  65.386  1.00  0.00    -0.055 C  
BRANCH   8  11
HETATM   11  C   UNL     1      -6.615   9.266  68.218  1.00  0.00    -0.059 C  
BRANCH  11  12
HETATM   12  C   UNL     1      -7.219   9.649  69.572  1.00  0.00    -0.080 C  
BRANCH  12  13
HETATM   13  C   UNL     1      -8.116   8.665  70.248  1.00  0.00    -0.109 C  
HETATM   14  C   UNL     1      -9.454   8.744  70.503  1.00  0.00    -0.219 C  
HETATM   15  C   UNL     1     -10.049   7.552  71.253  1.00  0.00    -0.197 A  
HETATM   16  C   UNL     1      -9.346   6.337  71.450  1.00  0.00    -0.160 A  
HETATM   17  C   UNL     1      -9.875   5.263  72.177  1.00  0.00    -0.216 A  
HETATM   18  C   UNL     1     -11.147   5.350  72.704  1.00  0.00    -0.332 A  
HETATM   19  C   UNL     1     -11.879   6.513  72.504  1.00  0.00    -0.159 A  
HETATM   20  C   UNL     1     -11.343   7.611  71.793  1.00  0.00    -0.255 A  
HETATM   21  S   UNL     1     -12.437   8.998  71.689  1.00  0.00    -0.373 SA 
HETATM   22  C   UNL     1     -11.589  10.150  70.646  1.00  0.00    -0.343 A  
HETATM   23  C   UNL     1     -10.288   9.982  70.137  1.00  0.00    -0.321 A  
HETATM   24  C   UNL     1      -9.839  11.040  69.307  1.00  0.00    -0.060 A  
HETATM   25  C   UNL     1     -10.573  12.210  69.071  1.00  0.00    -0.079 A  
HETATM   26  C   UNL     1     -11.833  12.354  69.597  1.00  0.00    -0.380 A  
HETATM   27 CL   UNL     1      -9.878  13.482  68.139  1.00  0.00    -0.231 Cl 
HETATM   28  C   UNL     1     -12.346  11.319  70.364  1.00  0.00    -0.415 A  
ENDBRANCH  12  13
ENDBRANCH  11  12
ENDBRANCH   8  11
ENDBRANCH   4   5
ENDBRANCH   2   4
TORSDOF 5
ENDMDL
MODEL      159
REMARK 921   NORMALIZED FREE ENERGY PREDICTED BY IDOCK:   -3.78 KCAL/MOL
REMARK 922        TOTAL FREE ENERGY PREDICTED BY IDOCK:   -5.43 KCAL/MOL
REMARK 923 INTER-LIGAND FREE ENERGY PREDICTED BY IDOCK:   -4.96 KCAL/MOL
REMARK 924 INTRA-LIGAND FREE ENERGY PREDICTED BY IDOCK:   -0.48 KCAL/MOL
REMARK 927      BINDING AFFINITY PREDICTED BY RF-SCORE:    0.00 PKD
ROOT
HETATM    1  O   UNL     1     -13.991   8.788  73.448  1.00  0.00    -1.132 OA 
HETATM    2  C   UNL     1     -13.911   9.541  72.240  1.00  0.00    -0.302 C  
HETATM    3  H   UNL     1     -14.849   8.916  73.836  1.00  0.00     0.000 HD 
ENDROOT
BRANCH   2   4
HETATM    4  C   UNL     1     -12.529   9.334  71.616  1.00  0.00    -0.368 C  
BRANCH   4   5
HETATM    5  N   UNL     1     -11.742   8.213  72.169  1.00  0.00    -0.334 NA 
HETATM    6  C   UNL     1     -11.755   7.088  71.204  1.00  0.00    -0.325 C  
HETATM    7  C   UNL     1     -10.888   7.342  69.947  1.00  0.00    -0.247 C  
HETATM    8  N   UNL     1      -9.475   7.676  70.250  1.00  0.00    -0.161 NA 
HETATM    9  C   UNL     1      -9.461   8.806  71.198  1.00  0.00    -0.240 C  
HETATM   10  C   UNL     1     -10.333   8.575  72.454  1.00  0.00    -0.302 C  
BRANCH   8  11
HETATM   11  C   UNL     1      -8.707   6.530  70.780  1.00  0.00    -0.143 C  
BRANCH  11  12
HETATM   12  C   UNL     1      -7.619   6.138  69.775  1.00  0.00    -0.085 C  
BRANCH  12  13
HETATM   13  C   UNL     1      -7.592   6.838  68.456  1.00  0.00    -0.104 C  
HETATM   14  C   UNL     1      -7.044   8.043  68.126  1.00  0.00    -0.089 C  
HETATM   15  C   UNL     1      -7.235   8.471  66.671  1.00  0.00    -0.074 A  
HETATM   16  C   UNL     1      -7.710   7.593  65.665  1.00  0.00    -0.099 A  
HETATM   17  C   UNL     1      -7.928   8.000  64.343  1.00  0.00    -0.145 A  
HETATM   18  C   UNL     1      -7.641   9.295  63.966  1.00  0.00    -0.113 A  
HETATM   19  C   UNL     1      -7.142  10.176  64.917  1.00  0.00    -0.131 A  
HETATM   20  C   UNL     1      -6.944   9.781  66.259  1.00  0.00    -0.094 A  
HETATM   21  S   UNL     1      -6.334  11.074  67.302  1.00  0.00    -0.077 SA 
HETATM   22  C   UNL     1      -6.045  10.283  68.860  1.00  0.00    -0.040 A  
HETATM   23  C   UNL     1      -6.357   8.945  69.164  1.00  0.00    -0.043 A  
HETATM   24  C   UNL     1      -6.009   8.543  70.477  1.00  0.00    -0.031 A  
HETATM   25  C   UNL     1      -5.481   9.409  71.443  1.00  0.00    -0.063 A  
HETATM   26  C   UNL     1      -5.204  10.716  71.123  1.00  0.00    -0.098 A  
HETATM   27 CL   UNL     1      -5.204   8.838  73.046  1.00  0.00    -0.058 Cl 
HETATM   28  C   UNL     1      -5.467  11.144  69.831  1.00  0.00    -0.058 A  
ENDBRANCH  12  13
ENDBRANCH  11  12
ENDBRANCH   8  11
ENDBRANCH   4   5
ENDBRANCH   2   4
TORSDOF 5
ENDMDL
MODEL      160
REMARK 921   NORMALIZED FREE ENERGY PREDICTED BY IDOCK:   -3.76 KCAL/MOL
REMARK 922        TOTAL FREE ENERGY PREDICTED BY IDOCK:   -5.41 KCAL/MOL
REMARK 923 INTER-LIGAND FREE ENERGY PREDICTED BY IDOCK:   -5.84 KCAL/MOL
REMARK 924 INTRA-LIGAND FREE ENERGY PREDICTED BY IDOCK:    0.43 KCAL/MOL
REMARK 927      BINDING AFFINITY PREDICTED BY RF-SCORE:    0.00 PKD
ROOT
HETATM    1  O   UNL     1      -5.957   7.543  67.040  1.00  0.00    -0.042 OA 
HETATM    2  C   UNL     1      -6.931   8.004  67.973  1.00  0.00    -0.074 C  
HETATM    3  H   UNL     1      -5.091   7.663  67.413  1.00  0.00     0.000 HD 
ENDROOT
BRANCH   2   4
HETATM    4  C   UNL     1      -8.325   7.812  67.372  1.00  0.00    -0.123 C  
BRANCH   4   5
HETATM    5  N   UNL     1      -9.276   8.918  67.603  1.00  0.00    -0.136 NA 
HETATM    6  C   UNL     1      -8.521  10.187  67.741  1.00  0.00    -0.114 C  
HETATM    7  C   UNL     1      -7.931  10.703  66.406  1.00  0.00    -0.142 C  
HETATM    8  N   UNL     1      -8.938  10.879  65.332  1.00  0.00    -0.196 NA 
HETATM    9  C   UNL     1      -9.680   9.612  65.183  1.00  0.00    -0.217 C  
HETATM   10  C   UNL     1     -10.265   9.074  66.510  1.00  0.00    -0.248 C  
BRANCH   8  11
HETATM   11  C   UNL     1      -9.861  12.007  65.580  1.00  0.00    -0.243 C  
BRANCH  11  12
HETATM   12  C   UNL     1      -9.492  12.684  66.903  1.00  0.00    -0.229 C  
BRANCH  12  13
HETATM   13  C   UNL     1      -9.005  14.096  66.861  1.00  0.00    -0.247 C  
HETATM   14  C   UNL     1      -9.331  15.149  67.664  1.00  0.00    -0.189 C  
HETATM   15  C   UNL     1      -8.659  16.475  67.309  1.00  0.00    -0.202 A  
HETATM   16  C   UNL     1      -7.585  16.573  66.390  1.00  0.00    -0.249 A  
HETATM   17  C   UNL     1      -7.001  17.794  66.031  1.00  0.00    -0.335 A  
HETATM   18  C   UNL     1      -7.446  18.965  66.609  1.00  0.00    -0.242 A  
HETATM   19  C   UNL     1      -8.476  18.906  67.539  1.00  0.00    -0.296 A  
HETATM   20  C   UNL     1      -9.088  17.681  67.887  1.00  0.00    -0.260 A  
HETATM   21  S   UNL     1     -10.399  17.845  69.064  1.00  0.00    -0.040 SA 
HETATM   22  C   UNL     1     -10.880  16.179  69.423  1.00  0.00    -0.320 A  
HETATM   23  C   UNL     1     -10.368  15.031  68.794  1.00  0.00    -0.240 A  
HETATM   24  C   UNL     1     -10.901  13.808  69.274  1.00  0.00    -0.141 A  
HETATM   25  C   UNL     1     -11.922  13.726  70.229  1.00  0.00    -0.326 A  
HETATM   26  C   UNL     1     -12.417  14.866  70.814  1.00  0.00    -0.401 A  
HETATM   27 CL   UNL     1     -12.575  12.188  70.653  1.00  0.00    -0.307 Cl 
HETATM   28  C   UNL     1     -11.883  16.086  70.425  1.00  0.00    -0.286 A  
ENDBRANCH  12  13
ENDBRANCH  11  12
ENDBRANCH   8  11
ENDBRANCH   4   5
ENDBRANCH   2   4
TORSDOF 5
ENDMDL
MODEL      161
REMARK 921   NORMALIZED FREE ENERGY PREDICTED BY IDOCK:   -3.74 KCAL/MOL
REMARK 922        TOTAL FREE ENERGY PREDICTED BY IDOCK:   -5.39 KCAL/MOL
REMARK 923 INTER-LIGAND FREE ENERGY PREDICTED BY IDOCK:   -4.83 KCAL/MOL
REMARK 924 INTRA-LIGAND FREE ENERGY PREDICTED BY IDOCK:   -0.56 KCAL/MOL
REMARK 927      BINDING AFFINITY PREDICTED BY RF-SCORE:    0.00 PKD
ROOT
HETATM    1  O   UNL     1     -11.756  13.926  71.093  1.00  0.00    -0.477 OA 
HETATM    2  C   UNL     1     -12.055  14.626  69.887  1.00  0.00    -0.335 C  
HETATM    3  H   UNL     1     -12.237  14.325  71.808  1.00  0.00     0.000 HD 
ENDROOT
BRANCH   2   4
HETATM    4  C   UNL     1     -11.280  13.983  68.735  1.00  0.00    -0.271 C  
BRANCH   4   5
HETATM    5  N   UNL     1     -11.957  12.855  68.063  1.00  0.00    -0.328 NA 
HETATM    6  C   UNL     1     -11.461  12.750  66.670  1.00  0.00    -0.350 C  
HETATM    7  C   UNL     1     -10.015  12.206  66.568  1.00  0.00    -0.213 C  
HETATM    8  N   UNL     1      -9.819  10.893  67.230  1.00  0.00    -0.173 NA 
HETATM    9  C   UNL     1     -10.299  11.001  68.621  1.00  0.00    -0.193 C  
HETATM   10  C   UNL     1     -11.737  11.556  68.742  1.00  0.00    -0.334 C  
BRANCH   8  11
HETATM   11  C   UNL     1     -10.489   9.781  66.523  1.00  0.00    -0.142 C  
BRANCH  11  12
HETATM   12  C   UNL     1     -10.476   8.533  67.411  1.00  0.00    -0.351 C  
BRANCH  12  13
HETATM   13  C   UNL     1      -9.993   7.251  66.818  1.00  0.00    -0.287 C  
HETATM   14  C   UNL     1      -8.776   6.647  66.933  1.00  0.00    -0.116 C  
HETATM   15  C   UNL     1      -8.617   5.341  66.154  1.00  0.00    -0.120 A  
HETATM   16  C   UNL     1      -9.708   4.658  65.564  1.00  0.00    -0.192 A  
HETATM   17  C   UNL     1      -9.555   3.486  64.812  1.00  0.00    -0.168 A  
HETATM   18  C   UNL     1      -8.302   2.931  64.654  1.00  0.00    -0.087 A  
HETATM   19  C   UNL     1      -7.212   3.554  65.245  1.00  0.00    -0.067 A  
HETATM   20  C   UNL     1      -7.354   4.750  65.984  1.00  0.00    -0.077 A  
HETATM   21  S   UNL     1      -5.830   5.386  66.618  1.00  0.00    -0.019 SA 
HETATM   22  C   UNL     1      -6.308   6.777  67.603  1.00  0.00    -0.044 A  
HETATM   23  C   UNL     1      -7.617   7.278  67.722  1.00  0.00    -0.110 A  
HETATM   24  C   UNL     1      -7.745   8.393  68.589  1.00  0.00    -0.107 A  
HETATM   25  C   UNL     1      -6.661   9.020  69.215  1.00  0.00    -0.049 A  
HETATM   26  C   UNL     1      -5.390   8.520  69.066  1.00  0.00    -0.036 A  
HETATM   27 CL   UNL     1      -6.921  10.440  70.157  1.00  0.00    -0.158 Cl 
HETATM   28  C   UNL     1      -5.219   7.391  68.278  1.00  0.00    -0.025 A  
ENDBRANCH  12  13
ENDBRANCH  11  12
ENDBRANCH   8  11
ENDBRANCH   4   5
ENDBRANCH   2   4
TORSDOF 5
ENDMDL
MODEL      162
REMARK 921   NORMALIZED FREE ENERGY PREDICTED BY IDOCK:   -3.70 KCAL/MOL
REMARK 922        TOTAL FREE ENERGY PREDICTED BY IDOCK:   -5.33 KCAL/MOL
REMARK 923 INTER-LIGAND FREE ENERGY PREDICTED BY IDOCK:   -6.20 KCAL/MOL
REMARK 924 INTRA-LIGAND FREE ENERGY PREDICTED BY IDOCK:    0.87 KCAL/MOL
REMARK 927      BINDING AFFINITY PREDICTED BY RF-SCORE:    0.00 PKD
ROOT
HETATM    1  O   UNL     1      -5.869  13.306  72.275  1.00  0.00    -0.403 OA 
HETATM    2  C   UNL     1      -5.412  13.004  70.959  1.00  0.00    -0.188 C  
HETATM    3  H   UNL     1      -5.993  12.494  72.753  1.00  0.00     0.000 HD 
ENDROOT
BRANCH   2   4
HETATM    4  C   UNL     1      -5.213  14.311  70.189  1.00  0.00    -0.092 C  
BRANCH   4   5
HETATM    5  N   UNL     1      -5.493  14.247  68.741  1.00  0.00    -0.084 NA 
HETATM    6  C   UNL     1      -5.347  12.846  68.279  1.00  0.00    -0.072 C  
HETATM    7  C   UNL     1      -6.494  11.917  68.749  1.00  0.00    -0.071 C  
HETATM    8  N   UNL     1      -7.845  12.393  68.365  1.00  0.00    -0.143 NA 
HETATM    9  C   UNL     1      -7.998  13.783  68.837  1.00  0.00     0.036 C  
HETATM   10  C   UNL     1      -6.853  14.720  68.389  1.00  0.00    -0.104 C  
BRANCH   8  11
HETATM   11  C   UNL     1      -8.105  12.295  66.913  1.00  0.00    -0.090 C  
BRANCH  11  12
HETATM   12  C   UNL     1      -9.491  11.685  66.685  1.00  0.00    -0.213 C  
BRANCH  12  13
HETATM   13  C   UNL     1     -10.282  11.264  67.879  1.00  0.00    -0.201 C  
HETATM   14  C   UNL     1     -11.095  12.005  68.686  1.00  0.00    -0.298 C  
HETATM   15  C   UNL     1     -11.728  11.246  69.852  1.00  0.00    -0.430 A  
HETATM   16  C   UNL     1     -11.699   9.834  69.958  1.00  0.00    -0.131 A  
HETATM   17  C   UNL     1     -12.240   9.142  71.050  1.00  0.00    -0.302 A  
HETATM   18  C   UNL     1     -12.866   9.839  72.062  1.00  0.00    -0.491 A  
HETATM   19  C   UNL     1     -12.943  11.223  71.977  1.00  0.00    -0.379 A  
HETATM   20  C   UNL     1     -12.377  11.930  70.892  1.00  0.00    -0.300 A  
HETATM   21  S   UNL     1     -12.564  13.685  71.007  1.00  0.00    -0.340 SA 
HETATM   22  C   UNL     1     -11.908  14.299  69.481  1.00  0.00    -0.329 A  
HETATM   23  C   UNL     1     -11.291  13.517  68.488  1.00  0.00    -0.327 A  
HETATM   24  C   UNL     1     -10.866  14.242  67.347  1.00  0.00    -0.288 A  
HETATM   25  C   UNL     1     -10.959  15.635  67.230  1.00  0.00    -0.275 A  
HETATM   26  C   UNL     1     -11.550  16.375  68.224  1.00  0.00    -0.030 A  
HETATM   27 CL   UNL     1     -10.303  16.423  65.844  1.00  0.00    -0.365 Cl 
HETATM   28  C   UNL     1     -12.040  15.706  69.336  1.00  0.00    -0.287 A  
ENDBRANCH  12  13
ENDBRANCH  11  12
ENDBRANCH   8  11
ENDBRANCH   4   5
ENDBRANCH   2   4
TORSDOF 5
ENDMDL
MODEL      163
REMARK 921   NORMALIZED FREE ENERGY PREDICTED BY IDOCK:   -3.68 KCAL/MOL
REMARK 922        TOTAL FREE ENERGY PREDICTED BY IDOCK:   -5.30 KCAL/MOL
REMARK 923 INTER-LIGAND FREE ENERGY PREDICTED BY IDOCK:   -4.74 KCAL/MOL
REMARK 924 INTRA-LIGAND FREE ENERGY PREDICTED BY IDOCK:   -0.56 KCAL/MOL
REMARK 927      BINDING AFFINITY PREDICTED BY RF-SCORE:    0.00 PKD
ROOT
HETATM    1  O   UNL     1      -7.070  16.215  69.344  1.00  0.00    -0.215 OA 
HETATM    2  C   UNL     1      -6.945  16.236  67.924  1.00  0.00    -0.138 C  
HETATM    3  H   UNL     1      -6.727  17.028  69.696  1.00  0.00     0.000 HD 
ENDROOT
BRANCH   2   4
HETATM    4  C   UNL     1      -7.497  14.927  67.357  1.00  0.00    -0.199 C  
BRANCH   4   5
HETATM    5  N   UNL     1      -8.018  13.970  68.355  1.00  0.00    -0.137 NA 
HETATM    6  C   UNL     1      -9.440  13.679  68.052  1.00  0.00    -0.209 C  
HETATM    7  C   UNL     1      -9.636  12.789  66.799  1.00  0.00    -0.244 C  
HETATM    8  N   UNL     1      -8.901  11.503  66.856  1.00  0.00    -0.175 NA 
HETATM    9  C   UNL     1      -7.482  11.793  67.143  1.00  0.00    -0.149 C  
HETATM   10  C   UNL     1      -7.270  12.692  68.383  1.00  0.00    -0.111 C  
BRANCH   8  11
HETATM   11  C   UNL     1      -9.459  10.558  67.847  1.00  0.00    -0.147 C  
BRANCH  11  12
HETATM   12  C   UNL     1     -10.287   9.493  67.123  1.00  0.00    -0.320 C  
BRANCH  12  13
HETATM   13  C   UNL     1      -9.567   8.483  66.292  1.00  0.00    -0.306 C  
HETATM   14  C   UNL     1      -9.369   7.153  66.521  1.00  0.00    -0.208 C  
HETATM   15  C   UNL     1      -8.547   6.422  65.460  1.00  0.00    -0.115 A  
HETATM   16  C   UNL     1      -8.225   6.994  64.204  1.00  0.00     0.059 A  
HETATM   17  C   UNL     1      -7.433   6.340  63.252  1.00  0.00    -0.071 A  
HETATM   18  C   UNL     1      -6.962   5.069  63.506  1.00  0.00    -0.047 A  
HETATM   19  C   UNL     1      -7.284   4.462  64.713  1.00  0.00    -0.070 A  
HETATM   20  C   UNL     1      -8.061   5.125  65.690  1.00  0.00    -0.115 A  
HETATM   21  S   UNL     1      -8.319   4.178  67.162  1.00  0.00    -0.100 SA 
HETATM   22  C   UNL     1      -9.421   5.166  68.134  1.00  0.00    -0.127 A  
HETATM   23  C   UNL     1      -9.865   6.458  67.799  1.00  0.00    -0.136 A  
HETATM   24  C   UNL     1     -10.762   7.033  68.734  1.00  0.00    -0.226 A  
HETATM   25  C   UNL     1     -11.119   6.427  69.945  1.00  0.00    -0.381 A  
HETATM   26  C   UNL     1     -10.654   5.172  70.255  1.00  0.00    -0.230 A  
HETATM   27 CL   UNL     1     -12.126   7.271  71.060  1.00  0.00    -0.363 Cl 
HETATM   28  C   UNL     1      -9.824   4.538  69.343  1.00  0.00    -0.260 A  
ENDBRANCH  12  13
ENDBRANCH  11  12
ENDBRANCH   8  11
ENDBRANCH   4   5
ENDBRANCH   2   4
TORSDOF 5
ENDMDL
MODEL      164
REMARK 921   NORMALIZED FREE ENERGY PREDICTED BY IDOCK:   -3.66 KCAL/MOL
REMARK 922        TOTAL FREE ENERGY PREDICTED BY IDOCK:   -5.29 KCAL/MOL
REMARK 923 INTER-LIGAND FREE ENERGY PREDICTED BY IDOCK:   -4.97 KCAL/MOL
REMARK 924 INTRA-LIGAND FREE ENERGY PREDICTED BY IDOCK:   -0.31 KCAL/MOL
REMARK 927      BINDING AFFINITY PREDICTED BY RF-SCORE:    0.00 PKD
ROOT
HETATM    1  O   UNL     1     -14.390   8.855  73.103  1.00  0.00    -1.143 OA 
HETATM    2  C   UNL     1     -13.391   9.497  72.314  1.00  0.00    -0.441 C  
HETATM    3  H   UNL     1     -15.145   9.427  73.169  1.00  0.00     0.000 HD 
ENDROOT
BRANCH   2   4
HETATM    4  C   UNL     1     -12.174   8.575  72.207  1.00  0.00    -0.389 C  
BRANCH   4   5
HETATM    5  N   UNL     1     -11.829   8.132  70.841  1.00  0.00    -0.261 NA 
HETATM    6  C   UNL     1     -11.592   9.322  69.989  1.00  0.00     0.025 C  
HETATM    7  C   UNL     1     -10.263  10.053  70.305  1.00  0.00    -0.206 C  
HETATM    8  N   UNL     1      -9.066   9.181  70.228  1.00  0.00    -0.198 NA 
HETATM    9  C   UNL     1      -9.295   8.003  71.087  1.00  0.00    -0.149 C  
HETATM   10  C   UNL     1     -10.625   7.270  70.794  1.00  0.00    -0.223 C  
BRANCH   8  11
HETATM   11  C   UNL     1      -8.733   8.773  68.847  1.00  0.00    -0.134 C  
BRANCH  11  12
HETATM   12  C   UNL     1      -7.579   7.767  68.879  1.00  0.00    -0.101 C  
BRANCH  12  13
HETATM   13  C   UNL     1      -7.878   6.341  68.551  1.00  0.00    -0.105 C  
HETATM   14  C   UNL     1      -7.956   5.729  67.335  1.00  0.00    -0.102 C  
HETATM   15  C   UNL     1      -8.320   4.244  67.372  1.00  0.00    -0.099 A  
HETATM   16  C   UNL     1      -8.324   3.481  68.565  1.00  0.00    -0.093 A  
HETATM   17  C   UNL     1      -8.702   2.133  68.604  1.00  0.00    -0.125 A  
HETATM   18  C   UNL     1      -9.054   1.485  67.438  1.00  0.00    -0.147 A  
HETATM   19  C   UNL     1      -9.030   2.191  66.244  1.00  0.00    -0.105 A  
HETATM   20  C   UNL     1      -8.675   3.558  66.199  1.00  0.00    -0.123 A  
HETATM   21  S   UNL     1      -8.746   4.264  64.578  1.00  0.00    -0.144 SA 
HETATM   22  C   UNL     1      -8.127   5.909  64.787  1.00  0.00    -0.132 A  
HETATM   23  C   UNL     1      -7.777   6.497  66.016  1.00  0.00    -0.093 A  
HETATM   24  C   UNL     1      -7.286   7.823  65.916  1.00  0.00    -0.073 A  
HETATM   25  C   UNL     1      -7.230   8.544  64.716  1.00  0.00    -0.085 A  
HETATM   26  C   UNL     1      -7.596   7.950  63.533  1.00  0.00    -0.130 A  
HETATM   27 CL   UNL     1      -6.724  10.192  64.731  1.00  0.00    -0.127 Cl 
HETATM   28  C   UNL     1      -8.024   6.631  63.568  1.00  0.00    -0.070 A  
ENDBRANCH  12  13
ENDBRANCH  11  12
ENDBRANCH   8  11
ENDBRANCH   4   5
ENDBRANCH   2   4
TORSDOF 5
ENDMDL
MODEL      165
REMARK 921   NORMALIZED FREE ENERGY PREDICTED BY IDOCK:   -3.66 KCAL/MOL
REMARK 922        TOTAL FREE ENERGY PREDICTED BY IDOCK:   -5.28 KCAL/MOL
REMARK 923 INTER-LIGAND FREE ENERGY PREDICTED BY IDOCK:   -5.28 KCAL/MOL
REMARK 924 INTRA-LIGAND FREE ENERGY PREDICTED BY IDOCK:    0.00 KCAL/MOL
REMARK 927      BINDING AFFINITY PREDICTED BY RF-SCORE:    0.00 PKD
ROOT
HETATM    1  O   UNL     1      -6.327  20.520  70.756  1.00  0.00    -0.536 OA 
HETATM    2  C   UNL     1      -6.501  19.903  69.483  1.00  0.00    -0.354 C  
HETATM    3  H   UNL     1      -5.400  20.545  70.962  1.00  0.00     0.000 HD 
ENDROOT
BRANCH   2   4
HETATM    4  C   UNL     1      -7.995  19.863  69.151  1.00  0.00     0.037 C  
BRANCH   4   5
HETATM    5  N   UNL     1      -8.359  19.085  67.949  1.00  0.00    -0.281 NA 
HETATM    6  C   UNL     1      -7.380  17.987  67.767  1.00  0.00    -0.213 C  
HETATM    7  C   UNL     1      -7.533  16.844  68.801  1.00  0.00    -0.237 C  
HETATM    8  N   UNL     1      -8.892  16.252  68.843  1.00  0.00    -0.243 NA 
HETATM    9  C   UNL     1      -9.866  17.343  69.040  1.00  0.00    -0.230 C  
HETATM   10  C   UNL     1      -9.718  18.499  68.024  1.00  0.00    -0.327 C  
BRANCH   8  11
HETATM   11  C   UNL     1      -9.219  15.461  67.638  1.00  0.00    -0.187 C  
BRANCH  11  12
HETATM   12  C   UNL     1      -7.975  14.691  67.183  1.00  0.00    -0.184 C  
BRANCH  12  13
HETATM   13  C   UNL     1      -7.456  13.604  68.066  1.00  0.00    -0.133 C  
HETATM   14  C   UNL     1      -7.742  12.271  68.059  1.00  0.00    -0.132 C  
HETATM   15  C   UNL     1      -7.044  11.447  69.142  1.00  0.00    -0.115 A  
HETATM   16  C   UNL     1      -5.984  11.954  69.933  1.00  0.00    -0.148 A  
HETATM   17  C   UNL     1      -5.377  11.213  70.955  1.00  0.00    -0.098 A  
HETATM   18  C   UNL     1      -5.783   9.918  71.199  1.00  0.00    -0.071 A  
HETATM   19  C   UNL     1      -6.797   9.375  70.422  1.00  0.00    -0.089 A  
HETATM   20  C   UNL     1      -7.433  10.124  69.406  1.00  0.00    -0.119 A  
HETATM   21  S   UNL     1      -8.718   9.244  68.566  1.00  0.00    -0.129 SA 
HETATM   22  C   UNL     1      -9.234  10.343  67.277  1.00  0.00    -0.142 A  
HETATM   23  C   UNL     1      -8.760  11.654  67.087  1.00  0.00    -0.164 A  
HETATM   24  C   UNL     1      -9.315  12.324  65.968  1.00  0.00    -0.142 A  
HETATM   25  C   UNL     1     -10.320  11.784  65.156  1.00  0.00    -0.279 A  
HETATM   26  C   UNL     1     -10.776  10.507  65.377  1.00  0.00    -0.038 A  
HETATM   27 CL   UNL     1     -11.003  12.736  63.892  1.00  0.00    -0.440 Cl 
HETATM   28  C   UNL     1     -10.220   9.784  66.421  1.00  0.00    -0.288 A  
ENDBRANCH  12  13
ENDBRANCH  11  12
ENDBRANCH   8  11
ENDBRANCH   4   5
ENDBRANCH   2   4
TORSDOF 5
ENDMDL
MODEL      166
REMARK 921   NORMALIZED FREE ENERGY PREDICTED BY IDOCK:   -3.65 KCAL/MOL
REMARK 922        TOTAL FREE ENERGY PREDICTED BY IDOCK:   -5.27 KCAL/MOL
REMARK 923 INTER-LIGAND FREE ENERGY PREDICTED BY IDOCK:   -4.84 KCAL/MOL
REMARK 924 INTRA-LIGAND FREE ENERGY PREDICTED BY IDOCK:   -0.43 KCAL/MOL
REMARK 927      BINDING AFFINITY PREDICTED BY RF-SCORE:    0.00 PKD
ROOT
HETATM    1  O   UNL     1      -8.527   8.944  74.065  1.00  0.00    -0.175 OA 
HETATM    2  C   UNL     1      -7.737   7.757  74.087  1.00  0.00    -0.175 C  
HETATM    3  H   UNL     1      -8.281   9.493  74.800  1.00  0.00     0.000 HD 
ENDROOT
BRANCH   2   4
HETATM    4  C   UNL     1      -8.135   6.874  72.903  1.00  0.00    -0.107 C  
BRANCH   4   5
HETATM    5  N   UNL     1      -9.179   7.428  72.017  1.00  0.00    -0.132 NA 
HETATM    6  C   UNL     1      -8.533   8.126  70.880  1.00  0.00    -0.130 C  
HETATM    7  C   UNL     1      -7.886   7.164  69.852  1.00  0.00    -0.113 C  
HETATM    8  N   UNL     1      -8.823   6.154  69.304  1.00  0.00    -0.124 NA 
HETATM    9  C   UNL     1      -9.456   5.449  70.434  1.00  0.00    -0.164 C  
HETATM   10  C   UNL     1     -10.095   6.394  71.478  1.00  0.00    -0.192 C  
BRANCH   8  11
HETATM   11  C   UNL     1      -9.842   6.735  68.404  1.00  0.00    -0.136 C  
BRANCH  11  12
HETATM   12  C   UNL     1      -9.151   7.349  67.183  1.00  0.00    -0.146 C  
BRANCH  12  13
HETATM   13  C   UNL     1      -9.670   8.648  66.658  1.00  0.00    -0.315 C  
HETATM   14  C   UNL     1      -9.432   9.255  65.460  1.00  0.00    -0.309 C  
HETATM   15  C   UNL     1     -10.110  10.612  65.269  1.00  0.00    -0.363 A  
HETATM   16  C   UNL     1     -11.115  11.101  66.139  1.00  0.00    -0.152 A  
HETATM   17  C   UNL     1     -11.703  12.363  65.989  1.00  0.00    -0.469 A  
HETATM   18  C   UNL     1     -11.332  13.172  64.934  1.00  0.00    -0.334 A  
HETATM   19  C   UNL     1     -10.373  12.714  64.041  1.00  0.00    -0.414 A  
HETATM   20  C   UNL     1      -9.757  11.452  64.200  1.00  0.00    -0.235 A  
HETATM   21  S   UNL     1      -8.542  11.088  62.967  1.00  0.00    -0.026 SA 
HETATM   22  C   UNL     1      -8.045   9.424  63.314  1.00  0.00    -0.151 A  
HETATM   23  C   UNL     1      -8.480   8.658  64.411  1.00  0.00    -0.113 A  
HETATM   24  C   UNL     1      -7.952   7.343  64.457  1.00  0.00    -0.122 A  
HETATM   25  C   UNL     1      -7.003   6.853  63.551  1.00  0.00    -0.057 A  
HETATM   26  C   UNL     1      -6.583   7.631  62.500  1.00  0.00    -0.072 A  
HETATM   27 CL   UNL     1      -6.343   5.276  63.772  1.00  0.00    -0.022 Cl 
HETATM   28  C   UNL     1      -7.118   8.904  62.372  1.00  0.00    -0.095 A  
ENDBRANCH  12  13
ENDBRANCH  11  12
ENDBRANCH   8  11
ENDBRANCH   4   5
ENDBRANCH   2   4
TORSDOF 5
ENDMDL
MODEL      167
REMARK 921   NORMALIZED FREE ENERGY PREDICTED BY IDOCK:   -3.64 KCAL/MOL
REMARK 922        TOTAL FREE ENERGY PREDICTED BY IDOCK:   -5.26 KCAL/MOL
REMARK 923 INTER-LIGAND FREE ENERGY PREDICTED BY IDOCK:   -5.63 KCAL/MOL
REMARK 924 INTRA-LIGAND FREE ENERGY PREDICTED BY IDOCK:    0.37 KCAL/MOL
REMARK 927      BINDING AFFINITY PREDICTED BY RF-SCORE:    0.00 PKD
ROOT
HETATM    1  O   UNL     1      -5.455   4.063  66.293  1.00  0.00    -0.012 OA 
HETATM    2  C   UNL     1      -5.244   5.428  66.645  1.00  0.00    -0.008 C  
HETATM    3  H   UNL     1      -4.728   3.767  65.757  1.00  0.00     0.000 HD 
ENDROOT
BRANCH   2   4
HETATM    4  C   UNL     1      -6.414   5.904  67.509  1.00  0.00    -0.047 C  
BRANCH   4   5
HETATM    5  N   UNL     1      -6.705   7.351  67.445  1.00  0.00    -0.067 NA 
HETATM    6  C   UNL     1      -7.186   7.690  66.084  1.00  0.00    -0.070 C  
HETATM    7  C   UNL     1      -8.620   7.182  65.791  1.00  0.00    -0.133 C  
HETATM    8  N   UNL     1      -9.632   7.647  66.769  1.00  0.00    -0.195 NA 
HETATM    9  C   UNL     1      -9.162   7.297  68.123  1.00  0.00    -0.132 C  
HETATM   10  C   UNL     1      -7.727   7.784  68.428  1.00  0.00    -0.119 C  
BRANCH   8  11
HETATM   11  C   UNL     1      -9.920   9.093  66.665  1.00  0.00    -0.273 C  
BRANCH  11  12
HETATM   12  C   UNL     1      -9.477   9.793  67.953  1.00  0.00    -0.146 C  
BRANCH  12  13
HETATM   13  C   UNL     1      -9.730  11.259  68.082  1.00  0.00    -0.188 C  
HETATM   14  C   UNL     1     -10.546  11.925  68.949  1.00  0.00    -0.205 C  
HETATM   15  C   UNL     1     -10.587  13.443  68.775  1.00  0.00    -0.230 A  
HETATM   16  C   UNL     1      -9.667  14.150  67.962  1.00  0.00    -0.226 A  
HETATM   17  C   UNL     1      -9.734  15.535  67.767  1.00  0.00    -0.211 A  
HETATM   18  C   UNL     1     -10.705  16.274  68.411  1.00  0.00    -0.311 A  
HETATM   19  C   UNL     1     -11.604  15.620  69.242  1.00  0.00    -0.375 A  
HETATM   20  C   UNL     1     -11.560  14.219  69.425  1.00  0.00    -0.306 A  
HETATM   21  S   UNL     1     -12.820  13.597  70.499  1.00  0.00    -0.016 SA 
HETATM   22  C   UNL     1     -12.449  11.873  70.661  1.00  0.00    -0.257 A  
HETATM   23  C   UNL     1     -11.428  11.192  69.973  1.00  0.00    -0.376 A  
HETATM   24  C   UNL     1     -11.320   9.815  70.292  1.00  0.00    -0.333 A  
HETATM   25  C   UNL     1     -12.201   9.143  71.148  1.00  0.00    -0.285 A  
HETATM   26  C   UNL     1     -13.200   9.830  71.792  1.00  0.00    -0.532 A  
HETATM   27 CL   UNL     1     -12.044   7.441  71.372  1.00  0.00    -0.338 Cl 
HETATM   28  C   UNL     1     -13.310  11.193  71.564  1.00  0.00    -0.235 A  
ENDBRANCH  12  13
ENDBRANCH  11  12
ENDBRANCH   8  11
ENDBRANCH   4   5
ENDBRANCH   2   4
TORSDOF 5
ENDMDL
MODEL      168
REMARK 921   NORMALIZED FREE ENERGY PREDICTED BY IDOCK:   -3.62 KCAL/MOL
REMARK 922        TOTAL FREE ENERGY PREDICTED BY IDOCK:   -5.23 KCAL/MOL
REMARK 923 INTER-LIGAND FREE ENERGY PREDICTED BY IDOCK:   -6.01 KCAL/MOL
REMARK 924 INTRA-LIGAND FREE ENERGY PREDICTED BY IDOCK:    0.78 KCAL/MOL
REMARK 927      BINDING AFFINITY PREDICTED BY RF-SCORE:    0.00 PKD
ROOT
HETATM    1  O   UNL     1      -6.824   4.730  73.574  1.00  0.00    -0.065 OA 
HETATM    2  C   UNL     1      -7.211   3.706  72.661  1.00  0.00    -0.049 C  
HETATM    3  H   UNL     1      -5.987   4.500  73.960  1.00  0.00     0.000 HD 
ENDROOT
BRANCH   2   4
HETATM    4  C   UNL     1      -8.558   4.078  72.038  1.00  0.00    -0.104 C  
BRANCH   4   5
HETATM    5  N   UNL     1      -8.646   5.442  71.479  1.00  0.00    -0.129 NA 
HETATM    6  C   UNL     1      -8.234   5.412  70.055  1.00  0.00    -0.095 C  
HETATM    7  C   UNL     1      -9.276   4.745  69.124  1.00  0.00    -0.123 C  
HETATM    8  N   UNL     1     -10.627   5.353  69.203  1.00  0.00    -0.213 NA 
HETATM    9  C   UNL     1     -11.045   5.370  70.618  1.00  0.00     0.095 C  
HETATM   10  C   UNL     1     -10.008   6.020  71.564  1.00  0.00    -0.177 C  
BRANCH   8  11
HETATM   11  C   UNL     1     -10.689   6.708  68.615  1.00  0.00    -0.254 C  
BRANCH  11  12
HETATM   12  C   UNL     1      -9.338   7.049  67.980  1.00  0.00    -0.127 C  
BRANCH  12  13
HETATM   13  C   UNL     1      -9.328   7.922  66.769  1.00  0.00    -0.232 C  
HETATM   14  C   UNL     1      -9.751   9.212  66.627  1.00  0.00    -0.287 C  
HETATM   15  C   UNL     1      -9.621   9.791  65.218  1.00  0.00    -0.368 A  
HETATM   16  C   UNL     1      -8.887   9.154  64.187  1.00  0.00    -0.127 A  
HETATM   17  C   UNL     1      -8.807   9.663  62.885  1.00  0.00    -0.252 A  
HETATM   18  C   UNL     1      -9.431  10.853  62.573  1.00  0.00    -0.277 A  
HETATM   19  C   UNL     1     -10.133  11.523  63.566  1.00  0.00    -0.446 A  
HETATM   20  C   UNL     1     -10.240  11.004  64.876  1.00  0.00    -0.311 A  
HETATM   21  S   UNL     1     -11.209  12.006  65.966  1.00  0.00    -0.331 SA 
HETATM   22  C   UNL     1     -11.059  11.213  67.542  1.00  0.00    -0.291 A  
HETATM   23  C   UNL     1     -10.393   9.998  67.782  1.00  0.00    -0.261 A  
HETATM   24  C   UNL     1     -10.396   9.581  69.137  1.00  0.00    -0.218 A  
HETATM   25  C   UNL     1     -11.076  10.256  70.157  1.00  0.00    -0.319 A  
HETATM   26  C   UNL     1     -11.735  11.432  69.890  1.00  0.00    -0.424 A  
HETATM   27 CL   UNL     1     -11.108   9.594  71.749  1.00  0.00    -0.249 Cl 
HETATM   28  C   UNL     1     -11.708  11.917  68.591  1.00  0.00    -0.380 A  
ENDBRANCH  12  13
ENDBRANCH  11  12
ENDBRANCH   8  11
ENDBRANCH   4   5
ENDBRANCH   2   4
TORSDOF 5
ENDMDL
MODEL      169
REMARK 921   NORMALIZED FREE ENERGY PREDICTED BY IDOCK:   -3.51 KCAL/MOL
REMARK 922        TOTAL FREE ENERGY PREDICTED BY IDOCK:   -5.08 KCAL/MOL
REMARK 923 INTER-LIGAND FREE ENERGY PREDICTED BY IDOCK:   -4.46 KCAL/MOL
REMARK 924 INTRA-LIGAND FREE ENERGY PREDICTED BY IDOCK:   -0.63 KCAL/MOL
REMARK 927      BINDING AFFINITY PREDICTED BY RF-SCORE:    0.00 PKD
ROOT
HETATM    1  O   UNL     1      -8.928  18.318  68.665  1.00  0.00    -0.319 OA 
HETATM    2  C   UNL     1      -8.645  17.738  67.394  1.00  0.00    -0.231 C  
HETATM    3  H   UNL     1      -8.807  19.259  68.609  1.00  0.00     0.000 HD 
ENDROOT
BRANCH   2   4
HETATM    4  C   UNL     1      -8.841  16.223  67.484  1.00  0.00    -0.186 C  
BRANCH   4   5
HETATM    5  N   UNL     1      -8.187  15.564  68.632  1.00  0.00    -0.152 NA 
HETATM    6  C   UNL     1      -8.464  14.108  68.579  1.00  0.00    -0.157 C  
HETATM    7  C   UNL     1      -7.691  13.373  67.457  1.00  0.00    -0.176 C  
HETATM    8  N   UNL     1      -6.221  13.563  67.517  1.00  0.00    -0.310 NA 
HETATM    9  C   UNL     1      -5.944  15.012  67.554  1.00  0.00     0.036 C  
HETATM   10  C   UNL     1      -6.719  15.764  68.661  1.00  0.00    -0.117 C  
BRANCH   8  11
HETATM   11  C   UNL     1      -5.592  12.873  68.663  1.00  0.00    -0.068 C  
BRANCH  11  12
HETATM   12  C   UNL     1      -5.653  11.359  68.441  1.00  0.00    -0.045 C  
BRANCH  12  13
HETATM   13  C   UNL     1      -6.773  10.598  69.071  1.00  0.00    -0.066 C  
HETATM   14  C   UNL     1      -7.724   9.813  68.487  1.00  0.00    -0.081 C  
HETATM   15  C   UNL     1      -8.750   9.207  69.445  1.00  0.00    -0.140 A  
HETATM   16  C   UNL     1      -8.597   9.229  70.853  1.00  0.00    -0.220 A  
HETATM   17  C   UNL     1      -9.560   8.714  71.730  1.00  0.00    -0.360 A  
HETATM   18  C   UNL     1     -10.699   8.120  71.228  1.00  0.00    -0.270 A  
HETATM   19  C   UNL     1     -10.869   8.050  69.852  1.00  0.00    -0.217 A  
HETATM   20  C   UNL     1      -9.915   8.591  68.960  1.00  0.00    -0.193 A  
HETATM   21  S   UNL     1     -10.352   8.419  67.254  1.00  0.00    -0.303 SA 
HETATM   22  C   UNL     1      -8.945   9.036  66.375  1.00  0.00    -0.155 A  
HETATM   23  C   UNL     1      -7.809   9.621  66.964  1.00  0.00    -0.098 A  
HETATM   24  C   UNL     1      -6.807  10.019  66.044  1.00  0.00    -0.105 A  
HETATM   25  C   UNL     1      -6.948   9.933  64.654  1.00  0.00    -0.133 A  
HETATM   26  C   UNL     1      -8.076   9.374  64.105  1.00  0.00    -0.145 A  
HETATM   27 CL   UNL     1      -5.710  10.555  63.628  1.00  0.00    -0.136 Cl 
HETATM   28  C   UNL     1      -9.061   8.910  64.965  1.00  0.00    -0.110 A  
ENDBRANCH  12  13
ENDBRANCH  11  12
ENDBRANCH   8  11
ENDBRANCH   4   5
ENDBRANCH   2   4
TORSDOF 5
ENDMDL
MODEL      170
REMARK 921   NORMALIZED FREE ENERGY PREDICTED BY IDOCK:   -3.50 KCAL/MOL
REMARK 922        TOTAL FREE ENERGY PREDICTED BY IDOCK:   -5.07 KCAL/MOL
REMARK 923 INTER-LIGAND FREE ENERGY PREDICTED BY IDOCK:   -4.65 KCAL/MOL
REMARK 924 INTRA-LIGAND FREE ENERGY PREDICTED BY IDOCK:   -0.42 KCAL/MOL
REMARK 927      BINDING AFFINITY PREDICTED BY RF-SCORE:    0.00 PKD
ROOT
HETATM    1  O   UNL     1     -10.953  15.761  65.357  1.00  0.00    -0.345 OA 
HETATM    2  C   UNL     1     -10.798  14.347  65.257  1.00  0.00    -0.361 C  
HETATM    3  H   UNL     1     -10.589  16.167  64.579  1.00  0.00     0.000 HD 
ENDROOT
BRANCH   2   4
HETATM    4  C   UNL     1     -11.385  13.693  66.510  1.00  0.00    -0.319 C  
BRANCH   4   5
HETATM    5  N   UNL     1     -10.398  13.216  67.500  1.00  0.00    -0.223 NA 
HETATM    6  C   UNL     1     -11.104  12.461  68.564  1.00  0.00    -0.258 C  
HETATM    7  C   UNL     1     -11.614  11.073  68.102  1.00  0.00    -0.272 C  
HETATM    8  N   UNL     1     -10.555  10.201  67.539  1.00  0.00    -0.253 NA 
HETATM    9  C   UNL     1      -9.862  10.946  66.470  1.00  0.00    -0.204 C  
HETATM   10  C   UNL     1      -9.358  12.340  66.910  1.00  0.00    -0.210 C  
BRANCH   8  11
HETATM   11  C   UNL     1      -9.597   9.721  68.556  1.00  0.00    -0.149 C  
BRANCH  11  12
HETATM   12  C   UNL     1      -9.946   8.281  68.944  1.00  0.00    -0.193 C  
BRANCH  12  13
HETATM   13  C   UNL     1      -9.228   7.170  68.251  1.00  0.00    -0.132 C  
HETATM   14  C   UNL     1      -8.747   5.998  68.759  1.00  0.00    -0.111 C  
HETATM   15  C   UNL     1      -8.026   5.097  67.756  1.00  0.00    -0.095 A  
HETATM   16  C   UNL     1      -8.067   5.314  66.357  1.00  0.00    -0.108 A  
HETATM   17  C   UNL     1      -7.369   4.515  65.443  1.00  0.00    -0.076 A  
HETATM   18  C   UNL     1      -6.631   3.440  65.895  1.00  0.00    -0.040 A  
HETATM   19  C   UNL     1      -6.594   3.176  67.257  1.00  0.00    -0.037 A  
HETATM   20  C   UNL     1      -7.274   3.993  68.188  1.00  0.00    -0.059 A  
HETATM   21  S   UNL     1      -7.061   3.491  69.871  1.00  0.00    -0.041 SA 
HETATM   22  C   UNL     1      -8.115   4.576  70.791  1.00  0.00    -0.068 A  
HETATM   23  C   UNL     1      -8.847   5.649  70.253  1.00  0.00    -0.146 A  
HETATM   24  C   UNL     1      -9.634   6.357  71.196  1.00  0.00    -0.187 A  
HETATM   25  C   UNL     1      -9.631   6.089  72.570  1.00  0.00    -0.153 A  
HETATM   26  C   UNL     1      -8.891   5.046  73.071  1.00  0.00    -0.116 A  
HETATM   27 CL   UNL     1     -10.539   7.091  73.639  1.00  0.00    -0.406 Cl 
HETATM   28  C   UNL     1      -8.152   4.281  72.181  1.00  0.00    -0.091 A  
ENDBRANCH  12  13
ENDBRANCH  11  12
ENDBRANCH   8  11
ENDBRANCH   4   5
ENDBRANCH   2   4
TORSDOF 5
ENDMDL
MODEL      171
REMARK 921   NORMALIZED FREE ENERGY PREDICTED BY IDOCK:   -3.50 KCAL/MOL
REMARK 922        TOTAL FREE ENERGY PREDICTED BY IDOCK:   -5.07 KCAL/MOL
REMARK 923 INTER-LIGAND FREE ENERGY PREDICTED BY IDOCK:   -4.33 KCAL/MOL
REMARK 924 INTRA-LIGAND FREE ENERGY PREDICTED BY IDOCK:   -0.74 KCAL/MOL
REMARK 927      BINDING AFFINITY PREDICTED BY RF-SCORE:    0.00 PKD
ROOT
HETATM    1  O   UNL     1      -9.720   5.297  70.638  1.00  0.00    -0.165 OA 
HETATM    2  C   UNL     1      -8.712   5.661  71.578  1.00  0.00    -0.132 C  
HETATM    3  H   UNL     1      -9.992   4.403  70.808  1.00  0.00     0.000 HD 
ENDROOT
BRANCH   2   4
HETATM    4  C   UNL     1      -8.274   7.101  71.305  1.00  0.00    -0.108 C  
BRANCH   4   5
HETATM    5  N   UNL     1      -7.014   7.250  70.548  1.00  0.00    -0.056 NA 
HETATM    6  C   UNL     1      -7.328   7.377  69.104  1.00  0.00    -0.090 C  
HETATM    7  C   UNL     1      -7.954   8.742  68.725  1.00  0.00    -0.106 C  
HETATM    8  N   UNL     1      -7.133   9.911  69.126  1.00  0.00    -0.066 NA 
HETATM    9  C   UNL     1      -6.833   9.793  70.566  1.00  0.00    -0.127 C  
HETATM   10  C   UNL     1      -6.220   8.430  70.964  1.00  0.00    -0.036 C  
BRANCH   8  11
HETATM   11  C   UNL     1      -5.891  10.047  68.336  1.00  0.00    -0.042 C  
BRANCH  11  12
HETATM   12  C   UNL     1      -6.042  11.208  67.348  1.00  0.00    -0.061 C  
BRANCH  12  13
HETATM   13  C   UNL     1      -6.995  12.305  67.690  1.00  0.00    -0.128 C  
HETATM   14  C   UNL     1      -8.234  12.566  67.182  1.00  0.00    -0.168 C  
HETATM   15  C   UNL     1      -8.925  13.808  67.747  1.00  0.00    -0.194 A  
HETATM   16  C   UNL     1      -8.453  14.499  68.889  1.00  0.00    -0.110 A  
HETATM   17  C   UNL     1      -9.060  15.663  69.378  1.00  0.00    -0.278 A  
HETATM   18  C   UNL     1     -10.190  16.159  68.761  1.00  0.00    -0.238 A  
HETATM   19  C   UNL     1     -10.701  15.490  67.658  1.00  0.00    -0.302 A  
HETATM   20  C   UNL     1     -10.080  14.329  67.143  1.00  0.00    -0.254 A  
HETATM   21  S   UNL     1     -10.883  13.662  65.714  1.00  0.00    -0.276 SA 
HETATM   22  C   UNL     1     -10.001  12.165  65.373  1.00  0.00    -0.246 A  
HETATM   23  C   UNL     1      -8.856  11.721  66.059  1.00  0.00    -0.057 A  
HETATM   24  C   UNL     1      -8.345  10.477  65.608  1.00  0.00    -0.167 A  
HETATM   25  C   UNL     1      -8.863   9.773  64.514  1.00  0.00    -0.216 A  
HETATM   26  C   UNL     1      -9.971  10.241  63.851  1.00  0.00    -0.143 A  
HETATM   27 CL   UNL     1      -8.088   8.328  63.983  1.00  0.00    -0.148 Cl 
HETATM   28  C   UNL     1     -10.548  11.422  64.293  1.00  0.00    -0.416 A  
ENDBRANCH  12  13
ENDBRANCH  11  12
ENDBRANCH   8  11
ENDBRANCH   4   5
ENDBRANCH   2   4
TORSDOF 5
ENDMDL
MODEL      172
REMARK 921   NORMALIZED FREE ENERGY PREDICTED BY IDOCK:   -3.44 KCAL/MOL
REMARK 922        TOTAL FREE ENERGY PREDICTED BY IDOCK:   -4.99 KCAL/MOL
REMARK 923 INTER-LIGAND FREE ENERGY PREDICTED BY IDOCK:   -5.72 KCAL/MOL
REMARK 924 INTRA-LIGAND FREE ENERGY PREDICTED BY IDOCK:    0.72 KCAL/MOL
REMARK 927      BINDING AFFINITY PREDICTED BY RF-SCORE:    0.00 PKD
ROOT
HETATM    1  O   UNL     1      -5.639   4.985  67.991  1.00  0.00    -0.014 OA 
HETATM    2  C   UNL     1      -5.268   6.277  68.467  1.00  0.00    -0.007 C  
HETATM    3  H   UNL     1      -5.018   4.711  67.326  1.00  0.00     0.000 HD 
ENDROOT
BRANCH   2   4
HETATM    4  C   UNL     1      -6.268   6.719  69.538  1.00  0.00    -0.034 C  
BRANCH   4   5
HETATM    5  N   UNL     1      -6.683   8.135  69.476  1.00  0.00    -0.038 NA 
HETATM    6  C   UNL     1      -6.037   8.780  68.308  1.00  0.00    -0.050 C  
HETATM    7  C   UNL     1      -6.634   8.336  66.949  1.00  0.00    -0.057 C  
HETATM    8  N   UNL     1      -8.098   8.542  66.841  1.00  0.00    -0.098 NA 
HETATM    9  C   UNL     1      -8.743   7.887  67.996  1.00  0.00    -0.125 C  
HETATM   10  C   UNL     1      -8.150   8.308  69.360  1.00  0.00    -0.115 C  
BRANCH   8  11
HETATM   11  C   UNL     1      -8.481   9.967  66.759  1.00  0.00    -0.125 C  
BRANCH  11  12
HETATM   12  C   UNL     1     -10.007  10.083  66.731  1.00  0.00    -0.267 C  
BRANCH  12  13
HETATM   13  C   UNL     1     -10.743  10.021  68.029  1.00  0.00    -0.303 C  
HETATM   14  C   UNL     1     -11.417  11.005  68.692  1.00  0.00    -0.375 C  
HETATM   15  C   UNL     1     -12.031  10.591  70.029  1.00  0.00    -0.367 A  
HETATM   16  C   UNL     1     -12.131   9.241  70.446  1.00  0.00     0.046 A  
HETATM   17  C   UNL     1     -12.653   8.866  71.691  1.00  0.00    -0.403 A  
HETATM   18  C   UNL     1     -13.130   9.831  72.553  1.00  0.00    -0.199 A  
HETATM   19  C   UNL     1     -13.079  11.163  72.166  1.00  0.00    -0.288 A  
HETATM   20  C   UNL     1     -12.531  11.552  70.923  1.00  0.00    -0.366 A  
HETATM   21  S   UNL     1     -12.537  13.300  70.653  1.00  0.00    -0.174 SA 
HETATM   22  C   UNL     1     -11.942  13.492  68.996  1.00  0.00    -0.335 A  
HETATM   23  C   UNL     1     -11.479  12.450  68.172  1.00  0.00    -0.370 A  
HETATM   24  C   UNL     1     -11.074  12.860  66.877  1.00  0.00    -0.312 A  
HETATM   25  C   UNL     1     -11.039  14.196  66.458  1.00  0.00    -0.318 A  
HETATM   26  C   UNL     1     -11.479  15.195  67.292  1.00  0.00    -0.284 A  
HETATM   27 CL   UNL     1     -10.416  14.588  64.899  1.00  0.00    -0.455 Cl 
HETATM   28  C   UNL     1     -11.947  14.840  68.548  1.00  0.00    -0.284 A  
ENDBRANCH  12  13
ENDBRANCH  11  12
ENDBRANCH   8  11
ENDBRANCH   4   5
ENDBRANCH   2   4
TORSDOF 5
ENDMDL
MODEL      173
REMARK 921   NORMALIZED FREE ENERGY PREDICTED BY IDOCK:   -3.42 KCAL/MOL
REMARK 922        TOTAL FREE ENERGY PREDICTED BY IDOCK:   -4.97 KCAL/MOL
REMARK 923 INTER-LIGAND FREE ENERGY PREDICTED BY IDOCK:   -4.74 KCAL/MOL
REMARK 924 INTRA-LIGAND FREE ENERGY PREDICTED BY IDOCK:   -0.23 KCAL/MOL
REMARK 927      BINDING AFFINITY PREDICTED BY RF-SCORE:    0.00 PKD
ROOT
HETATM    1  O   UNL     1     -10.708  15.250  70.388  1.00  0.00    -0.385 OA 
HETATM    2  C   UNL     1     -10.810  15.622  69.015  1.00  0.00    -0.254 C  
HETATM    3  H   UNL     1     -10.774  16.031  70.925  1.00  0.00     0.000 HD 
ENDROOT
BRANCH   2   4
HETATM    4  C   UNL     1     -10.704  14.364  68.150  1.00  0.00    -0.236 C  
BRANCH   4   5
HETATM    5  N   UNL     1     -10.197  13.159  68.838  1.00  0.00    -0.082 NA 
HETATM    6  C   UNL     1     -11.185  12.064  68.692  1.00  0.00    -0.258 C  
HETATM    7  C   UNL     1     -11.244  11.470  67.263  1.00  0.00    -0.301 C  
HETATM    8  N   UNL     1      -9.936  10.984  66.761  1.00  0.00    -0.197 NA 
HETATM    9  C   UNL     1      -8.955  12.079  66.892  1.00  0.00    -0.199 C  
HETATM   10  C   UNL     1      -8.893  12.692  68.310  1.00  0.00    -0.172 C  
BRANCH   8  11
HETATM   11  C   UNL     1      -9.465   9.765  67.453  1.00  0.00    -0.152 C  
BRANCH  11  12
HETATM   12  C   UNL     1     -10.425   8.609  67.156  1.00  0.00    -0.360 C  
BRANCH  12  13
HETATM   13  C   UNL     1     -10.045   7.241  67.618  1.00  0.00    -0.232 C  
HETATM   14  C   UNL     1      -9.172   6.351  67.066  1.00  0.00    -0.136 C  
HETATM   15  C   UNL     1      -9.052   5.013  67.797  1.00  0.00    -0.123 A  
HETATM   16  C   UNL     1      -9.593   4.788  69.086  1.00  0.00    -0.237 A  
HETATM   17  C   UNL     1      -9.522   3.549  69.735  1.00  0.00    -0.241 A  
HETATM   18  C   UNL     1      -8.870   2.494  69.130  1.00  0.00    -0.150 A  
HETATM   19  C   UNL     1      -8.298   2.685  67.880  1.00  0.00    -0.091 A  
HETATM   20  C   UNL     1      -8.388   3.925  67.208  1.00  0.00    -0.099 A  
HETATM   21  S   UNL     1      -7.617   3.933  65.615  1.00  0.00    -0.082 SA 
HETATM   22  C   UNL     1      -7.748   5.612  65.070  1.00  0.00    -0.094 A  
HETATM   23  C   UNL     1      -8.426   6.639  65.753  1.00  0.00    -0.150 A  
HETATM   24  C   UNL     1      -8.369   7.905  65.119  1.00  0.00    -0.128 A  
HETATM   25  C   UNL     1      -7.775   8.125  63.870  1.00  0.00    -0.138 A  
HETATM   26  C   UNL     1      -7.137   7.099  63.217  1.00  0.00    -0.065 A  
HETATM   27 CL   UNL     1      -7.868   9.684  63.140  1.00  0.00    -0.127 Cl 
HETATM   28  C   UNL     1      -7.108   5.853  63.825  1.00  0.00    -0.052 A  
ENDBRANCH  12  13
ENDBRANCH  11  12
ENDBRANCH   8  11
ENDBRANCH   4   5
ENDBRANCH   2   4
TORSDOF 5
ENDMDL
MODEL      174
REMARK 921   NORMALIZED FREE ENERGY PREDICTED BY IDOCK:   -3.38 KCAL/MOL
REMARK 922        TOTAL FREE ENERGY PREDICTED BY IDOCK:   -4.92 KCAL/MOL
REMARK 923 INTER-LIGAND FREE ENERGY PREDICTED BY IDOCK:   -6.09 KCAL/MOL
REMARK 924 INTRA-LIGAND FREE ENERGY PREDICTED BY IDOCK:    1.18 KCAL/MOL
REMARK 927      BINDING AFFINITY PREDICTED BY RF-SCORE:    0.00 PKD
ROOT
HETATM    1  O   UNL     1     -11.934  11.142  66.732  1.00  0.00    -0.103 OA 
HETATM    2  C   UNL     1     -11.147  11.054  67.917  1.00  0.00    -0.288 C  
HETATM    3  H   UNL     1     -11.509  10.647  66.042  1.00  0.00     0.000 HD 
ENDROOT
BRANCH   2   4
HETATM    4  C   UNL     1     -11.832  11.851  69.030  1.00  0.00    -0.308 C  
BRANCH   4   5
HETATM    5  N   UNL     1     -11.419  13.264  69.147  1.00  0.00    -0.288 NA 
HETATM    6  C   UNL     1     -10.027  13.406  68.658  1.00  0.00    -0.135 C  
HETATM    7  C   UNL     1      -9.897  13.285  67.119  1.00  0.00    -0.237 C  
HETATM    8  N   UNL     1     -10.751  14.237  66.369  1.00  0.00    -0.294 NA 
HETATM    9  C   UNL     1     -12.140  14.086  66.845  1.00  0.00    -0.430 C  
HETATM   10  C   UNL     1     -12.286  14.190  68.381  1.00  0.00    -0.164 C  
BRANCH   8  11
HETATM   11  C   UNL     1     -10.300  15.640  66.487  1.00  0.00    -0.291 C  
BRANCH  11  12
HETATM   12  C   UNL     1      -8.803  15.720  66.175  1.00  0.00    -0.346 C  
BRANCH  12  13
HETATM   13  C   UNL     1      -8.079  16.982  66.513  1.00  0.00    -0.320 C  
HETATM   14  C   UNL     1      -7.077  17.192  67.414  1.00  0.00    -0.179 C  
HETATM   15  C   UNL     1      -6.587  18.636  67.523  1.00  0.00    -0.198 A  
HETATM   16  C   UNL     1      -6.945  19.644  66.594  1.00  0.00    -0.216 A  
HETATM   17  C   UNL     1      -6.534  20.976  66.721  1.00  0.00    -0.382 A  
HETATM   18  C   UNL     1      -5.713  21.344  67.767  1.00  0.00    -0.377 A  
HETATM   19  C   UNL     1      -5.314  20.378  68.680  1.00  0.00    -0.276 A  
HETATM   20  C   UNL     1      -5.746  19.036  68.573  1.00  0.00    -0.208 A  
HETATM   21  S   UNL     1      -5.143  17.986  69.863  1.00  0.00    -0.213 SA 
HETATM   22  C   UNL     1      -5.705  16.368  69.413  1.00  0.00    -0.149 A  
HETATM   23  C   UNL     1      -6.537  16.072  68.318  1.00  0.00    -0.121 A  
HETATM   24  C   UNL     1      -6.831  14.694  68.157  1.00  0.00    -0.128 A  
HETATM   25  C   UNL     1      -6.416  13.700  69.052  1.00  0.00    -0.106 A  
HETATM   26  C   UNL     1      -5.620  14.022  70.124  1.00  0.00    -0.118 A  
HETATM   27 CL   UNL     1      -6.931  12.071  68.821  1.00  0.00    -0.096 Cl 
HETATM   28  C   UNL     1      -5.251  15.349  70.291  1.00  0.00    -0.123 A  
ENDBRANCH  12  13
ENDBRANCH  11  12
ENDBRANCH   8  11
ENDBRANCH   4   5
ENDBRANCH   2   4
TORSDOF 5
ENDMDL
MODEL      175
REMARK 921   NORMALIZED FREE ENERGY PREDICTED BY IDOCK:   -3.37 KCAL/MOL
REMARK 922        TOTAL FREE ENERGY PREDICTED BY IDOCK:   -4.90 KCAL/MOL
REMARK 923 INTER-LIGAND FREE ENERGY PREDICTED BY IDOCK:   -4.58 KCAL/MOL
REMARK 924 INTRA-LIGAND FREE ENERGY PREDICTED BY IDOCK:   -0.32 KCAL/MOL
REMARK 927      BINDING AFFINITY PREDICTED BY RF-SCORE:    0.00 PKD
ROOT
HETATM    1  O   UNL     1      -8.435  14.456  66.982  1.00  0.00    -0.240 OA 
HETATM    2  C   UNL     1      -9.632  14.086  66.302  1.00  0.00    -0.265 C  
HETATM    3  H   UNL     1      -8.115  15.274  66.620  1.00  0.00     0.000 HD 
ENDROOT
BRANCH   2   4
HETATM    4  C   UNL     1     -10.149  12.769  66.886  1.00  0.00    -0.232 C  
BRANCH   4   5
HETATM    5  N   UNL     1      -9.539  11.544  66.330  1.00  0.00    -0.211 NA 
HETATM    6  C   UNL     1      -8.231  11.310  66.987  1.00  0.00    -0.151 C  
HETATM    7  C   UNL     1      -8.354  10.826  68.453  1.00  0.00    -0.132 C  
HETATM    8  N   UNL     1      -9.178   9.605  68.615  1.00  0.00    -0.134 NA 
HETATM    9  C   UNL     1     -10.486   9.841  67.974  1.00  0.00    -0.226 C  
HETATM   10  C   UNL     1     -10.382  10.338  66.514  1.00  0.00    -0.211 C  
BRANCH   8  11
HETATM   11  C   UNL     1      -8.533   8.392  68.070  1.00  0.00    -0.132 C  
BRANCH  11  12
HETATM   12  C   UNL     1      -9.450   7.185  68.290  1.00  0.00    -0.133 C  
BRANCH  12  13
HETATM   13  C   UNL     1      -9.446   6.100  67.264  1.00  0.00    -0.121 C  
HETATM   14  C   UNL     1      -9.473   4.746  67.434  1.00  0.00    -0.166 C  
HETATM   15  C   UNL     1      -9.424   3.924  66.146  1.00  0.00    -0.191 A  
HETATM   16  C   UNL     1      -9.599   4.494  64.861  1.00  0.00    -0.126 A  
HETATM   17  C   UNL     1      -9.508   3.747  63.680  1.00  0.00    -0.141 A  
HETATM   18  C   UNL     1      -9.277   2.389  63.742  1.00  0.00    -0.101 A  
HETATM   19  C   UNL     1      -9.133   1.789  64.986  1.00  0.00    -0.120 A  
HETATM   20  C   UNL     1      -9.197   2.539  66.181  1.00  0.00    -0.034 A  
HETATM   21  S   UNL     1      -8.953   1.576  67.645  1.00  0.00    -0.140 SA 
HETATM   22  C   UNL     1      -9.223   2.716  68.973  1.00  0.00    -0.151 A  
HETATM   23  C   UNL     1      -9.466   4.093  68.826  1.00  0.00    -0.231 A  
HETATM   24  C   UNL     1      -9.671   4.788  70.044  1.00  0.00    -0.280 A  
HETATM   25  C   UNL     1      -9.556   4.196  71.308  1.00  0.00    -0.172 A  
HETATM   26  C   UNL     1      -9.299   2.851  71.421  1.00  0.00    -0.204 A  
HETATM   27 CL   UNL     1      -9.712   5.165  72.725  1.00  0.00    -0.172 Cl 
HETATM   28  C   UNL     1      -9.154   2.112  70.257  1.00  0.00    -0.164 A  
ENDBRANCH  12  13
ENDBRANCH  11  12
ENDBRANCH   8  11
ENDBRANCH   4   5
ENDBRANCH   2   4
TORSDOF 5
ENDMDL
MODEL      176
REMARK 921   NORMALIZED FREE ENERGY PREDICTED BY IDOCK:   -3.28 KCAL/MOL
REMARK 922        TOTAL FREE ENERGY PREDICTED BY IDOCK:   -4.79 KCAL/MOL
REMARK 923 INTER-LIGAND FREE ENERGY PREDICTED BY IDOCK:   -4.52 KCAL/MOL
REMARK 924 INTRA-LIGAND FREE ENERGY PREDICTED BY IDOCK:   -0.27 KCAL/MOL
REMARK 927      BINDING AFFINITY PREDICTED BY RF-SCORE:    0.00 PKD
ROOT
HETATM    1  O   UNL     1      -6.311   9.892  74.043  1.00  0.00     0.102 OA 
HETATM    2  C   UNL     1      -5.290   8.957  73.701  1.00  0.00    -0.103 C  
HETATM    3  H   UNL     1      -5.908  10.661  74.430  1.00  0.00     0.000 HD 
ENDROOT
BRANCH   2   4
HETATM    4  C   UNL     1      -5.938   7.719  73.077  1.00  0.00    -0.053 C  
BRANCH   4   5
HETATM    5  N   UNL     1      -6.033   7.724  71.604  1.00  0.00    -0.035 NA 
HETATM    6  C   UNL     1      -6.124   6.326  71.118  1.00  0.00    -0.032 C  
HETATM    7  C   UNL     1      -7.491   5.659  71.406  1.00  0.00    -0.095 C  
HETATM    8  N   UNL     1      -8.651   6.412  70.870  1.00  0.00    -0.134 NA 
HETATM    9  C   UNL     1      -8.570   7.800  71.365  1.00  0.00    -0.120 C  
HETATM   10  C   UNL     1      -7.206   8.476  71.098  1.00  0.00    -0.076 C  
BRANCH   8  11
HETATM   11  C   UNL     1      -8.732   6.379  69.394  1.00  0.00    -0.129 C  
BRANCH  11  12
HETATM   12  C   UNL     1     -10.162   6.710  68.956  1.00  0.00    -0.196 C  
BRANCH  12  13
HETATM   13  C   UNL     1     -10.520   8.144  68.740  1.00  0.00    -0.198 C  
HETATM   14  C   UNL     1     -10.291   8.940  67.657  1.00  0.00    -0.313 C  
HETATM   15  C   UNL     1     -10.771  10.385  67.795  1.00  0.00    -0.327 A  
HETATM   16  C   UNL     1     -11.617  10.820  68.844  1.00  0.00    -0.361 A  
HETATM   17  C   UNL     1     -12.018  12.153  68.995  1.00  0.00    -0.302 A  
HETATM   18  C   UNL     1     -11.617  13.099  68.075  1.00  0.00    -0.371 A  
HETATM   19  C   UNL     1     -10.813  12.705  67.013  1.00  0.00    -0.282 A  
HETATM   20  C   UNL     1     -10.383  11.367  66.868  1.00  0.00    -0.227 A  
HETATM   21  S   UNL     1      -9.341  11.098  65.464  1.00  0.00    -0.221 SA 
HETATM   22  C   UNL     1      -9.073   9.348  65.442  1.00  0.00    -0.226 A  
HETATM   23  C   UNL     1      -9.528   8.443  66.418  1.00  0.00    -0.293 A  
HETATM   24  C   UNL     1      -9.202   7.088  66.163  1.00  0.00    -0.119 A  
HETATM   25  C   UNL     1      -8.415   6.666  65.084  1.00  0.00    -0.034 A  
HETATM   26  C   UNL     1      -7.968   7.575  64.156  1.00  0.00    -0.098 A  
HETATM   27 CL   UNL     1      -7.983   5.004  64.937  1.00  0.00    -0.094 Cl 
HETATM   28  C   UNL     1      -8.314   8.908  64.325  1.00  0.00    -0.176 A  
ENDBRANCH  12  13
ENDBRANCH  11  12
ENDBRANCH   8  11
ENDBRANCH   4   5
ENDBRANCH   2   4
TORSDOF 5
ENDMDL
MODEL      177
REMARK 921   NORMALIZED FREE ENERGY PREDICTED BY IDOCK:   -3.16 KCAL/MOL
REMARK 922        TOTAL FREE ENERGY PREDICTED BY IDOCK:   -4.63 KCAL/MOL
REMARK 923 INTER-LIGAND FREE ENERGY PREDICTED BY IDOCK:   -4.63 KCAL/MOL
REMARK 924 INTRA-LIGAND FREE ENERGY PREDICTED BY IDOCK:    0.00 KCAL/MOL
REMARK 927      BINDING AFFINITY PREDICTED BY RF-SCORE:    0.00 PKD
ROOT
HETATM    1  O   UNL     1     -10.507  18.894  67.504  1.00  0.00    -0.400 OA 
HETATM    2  C   UNL     1     -10.034  17.829  68.325  1.00  0.00    -0.355 C  
HETATM    3  H   UNL     1     -10.392  19.715  67.969  1.00  0.00     0.000 HD 
ENDROOT
BRANCH   2   4
HETATM    4  C   UNL     1     -10.219  16.506  67.577  1.00  0.00    -0.283 C  
BRANCH   4   5
HETATM    5  N   UNL     1     -10.578  15.345  68.416  1.00  0.00    -0.241 NA 
HETATM    6  C   UNL     1     -11.049  14.242  67.543  1.00  0.00    -0.298 C  
HETATM    7  C   UNL     1      -9.913  13.565  66.738  1.00  0.00    -0.269 C  
HETATM    8  N   UNL     1      -8.805  13.050  67.578  1.00  0.00    -0.184 NA 
HETATM    9  C   UNL     1      -8.326  14.151  68.437  1.00  0.00    -0.161 C  
HETATM   10  C   UNL     1      -9.450  14.848  69.238  1.00  0.00    -0.114 C  
BRANCH   8  11
HETATM   11  C   UNL     1      -9.189  11.875  68.389  1.00  0.00    -0.173 C  
BRANCH  11  12
HETATM   12  C   UNL     1      -7.929  11.225  68.970  1.00  0.00    -0.062 C  
BRANCH  12  13
HETATM   13  C   UNL     1      -8.094  10.225  70.067  1.00  0.00     0.016 C  
HETATM   14  C   UNL     1      -8.639   8.976  70.026  1.00  0.00    -0.157 C  
HETATM   15  C   UNL     1      -8.673   8.233  71.362  1.00  0.00    -0.197 A  
HETATM   16  C   UNL     1      -7.970   8.677  72.509  1.00  0.00    -0.026 A  
HETATM   17  C   UNL     1      -8.039   8.020  73.744  1.00  0.00    -0.279 A  
HETATM   18  C   UNL     1      -8.789   6.869  73.869  1.00  0.00    -0.192 A  
HETATM   19  C   UNL     1      -9.466   6.385  72.758  1.00  0.00    -0.147 A  
HETATM   20  C   UNL     1      -9.422   7.055  71.515  1.00  0.00    -0.154 A  
HETATM   21  S   UNL     1     -10.386   6.280  70.249  1.00  0.00    -0.219 SA 
HETATM   22  C   UNL     1     -10.042   7.225  68.792  1.00  0.00    -0.176 A  
HETATM   23  C   UNL     1      -9.253   8.389  68.745  1.00  0.00    -0.143 A  
HETATM   24  C   UNL     1      -9.112   8.953  67.452  1.00  0.00    -0.147 A  
HETATM   25  C   UNL     1      -9.766   8.464  66.314  1.00  0.00    -0.207 A  
HETATM   26  C   UNL     1     -10.545   7.336  66.394  1.00  0.00     0.311 A  
HETATM   27 CL   UNL     1      -9.612   9.300  64.814  1.00  0.00    -0.002 Cl 
HETATM   28  C   UNL     1     -10.665   6.709  67.625  1.00  0.00    -0.373 A  
ENDBRANCH  12  13
ENDBRANCH  11  12
ENDBRANCH   8  11
ENDBRANCH   4   5
ENDBRANCH   2   4
TORSDOF 5
ENDMDL
MODEL      178
REMARK 921   NORMALIZED FREE ENERGY PREDICTED BY IDOCK:   -3.13 KCAL/MOL
REMARK 922        TOTAL FREE ENERGY PREDICTED BY IDOCK:   -4.60 KCAL/MOL
REMARK 923 INTER-LIGAND FREE ENERGY PREDICTED BY IDOCK:   -4.52 KCAL/MOL
REMARK 924 INTRA-LIGAND FREE ENERGY PREDICTED BY IDOCK:   -0.07 KCAL/MOL
REMARK 927      BINDING AFFINITY PREDICTED BY RF-SCORE:    0.00 PKD
ROOT
HETATM    1  O   UNL     1      -6.073  10.024  62.626  1.00  0.00    -0.107 OA 
HETATM    2  C   UNL     1      -6.657   8.726  62.694  1.00  0.00    -0.095 C  
HETATM    3  H   UNL     1      -5.516  10.072  61.857  1.00  0.00     0.000 HD 
ENDROOT
BRANCH   2   4
HETATM    4  C   UNL     1      -7.553   8.649  63.932  1.00  0.00    -0.127 C  
BRANCH   4   5
HETATM    5  N   UNL     1      -8.961   9.045  63.725  1.00  0.00     0.010 NA 
HETATM    6  C   UNL     1      -9.610   9.243  65.043  1.00  0.00     0.050 C  
HETATM    7  C   UNL     1      -9.145  10.526  65.774  1.00  0.00    -0.179 C  
HETATM    8  N   UNL     1      -9.322  11.766  64.980  1.00  0.00    -0.064 NA 
HETATM    9  C   UNL     1      -8.664  11.576  63.673  1.00  0.00     0.455 C  
HETATM   10  C   UNL     1      -9.106  10.291  62.936  1.00  0.00    -0.278 C  
BRANCH   8  11
HETATM   11  C   UNL     1     -10.740  12.149  64.809  1.00  0.00    -0.301 C  
BRANCH  11  12
HETATM   12  C   UNL     1     -11.091  13.256  65.807  1.00  0.00    -0.296 C  
BRANCH  12  13
HETATM   13  C   UNL     1     -11.576  12.857  67.161  1.00  0.00    -0.421 C  
HETATM   14  C   UNL     1     -11.761  13.621  68.276  1.00  0.00    -0.398 C  
HETATM   15  C   UNL     1     -12.244  12.866  69.514  1.00  0.00    -0.177 A  
HETATM   16  C   UNL     1     -12.718  11.532  69.467  1.00  0.00     0.328 A  
HETATM   17  C   UNL     1     -13.117  10.826  70.609  1.00  0.00    -0.204 A  
HETATM   18  C   UNL     1     -13.093  11.445  71.842  1.00  0.00    -0.505 A  
HETATM   19  C   UNL     1     -12.665  12.763  71.924  1.00  0.00    -0.194 A  
HETATM   20  C   UNL     1     -12.237  13.474  70.780  1.00  0.00    -0.338 A  
HETATM   21  S   UNL     1     -11.704  15.126  71.123  1.00  0.00    -0.381 SA 
HETATM   22  C   UNL     1     -11.366  15.819  69.528  1.00  0.00    -0.328 A  
HETATM   23  C   UNL     1     -11.424  15.121  68.309  1.00  0.00    -0.350 A  
HETATM   24  C   UNL     1     -11.129  15.906  67.166  1.00  0.00    -0.148 A  
HETATM   25  C   UNL     1     -10.721  17.244  67.225  1.00  0.00    -0.215 A  
HETATM   26  C   UNL     1     -10.655  17.895  68.433  1.00  0.00    -0.275 A  
HETATM   27 CL   UNL     1     -10.275  18.067  65.778  1.00  0.00    -0.203 Cl 
HETATM   28  C   UNL     1     -10.996  17.190  69.577  1.00  0.00     0.214 A  
ENDBRANCH  12  13
ENDBRANCH  11  12
ENDBRANCH   8  11
ENDBRANCH   4   5
ENDBRANCH   2   4
TORSDOF 5
ENDMDL
MODEL      179
REMARK 921   NORMALIZED FREE ENERGY PREDICTED BY IDOCK:   -3.03 KCAL/MOL
REMARK 922        TOTAL FREE ENERGY PREDICTED BY IDOCK:   -4.47 KCAL/MOL
REMARK 923 INTER-LIGAND FREE ENERGY PREDICTED BY IDOCK:   -5.08 KCAL/MOL
REMARK 924 INTRA-LIGAND FREE ENERGY PREDICTED BY IDOCK:    0.61 KCAL/MOL
REMARK 927      BINDING AFFINITY PREDICTED BY RF-SCORE:    0.00 PKD
ROOT
HETATM    1  O   UNL     1     -10.597   8.133  68.338  1.00  0.00    -0.330 OA 
HETATM    2  C   UNL     1     -10.443   9.384  67.672  1.00  0.00    -0.268 C  
HETATM    3  H   UNL     1     -11.524   7.938  68.417  1.00  0.00     0.000 HD 
ENDROOT
BRANCH   2   4
HETATM    4  C   UNL     1      -8.951   9.698  67.544  1.00  0.00    -0.128 C  
BRANCH   4   5
HETATM    5  N   UNL     1      -8.579  10.568  66.409  1.00  0.00    -0.140 NA 
HETATM    6  C   UNL     1      -9.751  10.730  65.516  1.00  0.00    -0.239 C  
HETATM    7  C   UNL     1     -10.859  11.635  66.109  1.00  0.00    -0.294 C  
HETATM    8  N   UNL     1     -10.385  12.985  66.501  1.00  0.00    -0.269 NA 
HETATM    9  C   UNL     1      -9.228  12.824  67.402  1.00  0.00    -0.193 C  
HETATM   10  C   UNL     1      -8.118  11.912  66.832  1.00  0.00    -0.146 C  
BRANCH   8  11
HETATM   11  C   UNL     1     -10.042  13.839  65.345  1.00  0.00    -0.286 C  
BRANCH  11  12
HETATM   12  C   UNL     1     -10.728  15.200  65.497  1.00  0.00    -0.379 C  
BRANCH  12  13
HETATM   13  C   UNL     1      -9.876  16.389  65.797  1.00  0.00    -0.303 C  
HETATM   14  C   UNL     1      -9.637  17.005  66.991  1.00  0.00    -0.257 C  
HETATM   15  C   UNL     1      -8.728  18.232  66.923  1.00  0.00    -0.273 A  
HETATM   16  C   UNL     1      -7.974  18.570  65.773  1.00  0.00     0.124 A  
HETATM   17  C   UNL     1      -7.177  19.719  65.697  1.00  0.00    -0.322 A  
HETATM   18  C   UNL     1      -7.075  20.558  66.788  1.00  0.00    -0.331 A  
HETATM   19  C   UNL     1      -7.774  20.242  67.945  1.00  0.00    -0.260 A  
HETATM   20  C   UNL     1      -8.600  19.098  68.021  1.00  0.00    -0.310 A  
HETATM   21  S   UNL     1      -9.420  18.910  69.577  1.00  0.00     0.400 SA 
HETATM   22  C   UNL     1     -10.255  17.354  69.451  1.00  0.00    -0.119 A  
HETATM   23  C   UNL     1     -10.304  16.548  68.299  1.00  0.00    -0.293 A  
HETATM   24  C   UNL     1     -11.021  15.336  68.458  1.00  0.00    -0.266 A  
HETATM   25  C   UNL     1     -11.711  14.987  69.625  1.00  0.00    -0.321 A  
HETATM   26  C   UNL     1     -11.661  15.803  70.729  1.00  0.00    -0.430 A  
HETATM   27 CL   UNL     1     -12.647  13.540  69.665  1.00  0.00    -0.093 Cl 
HETATM   28  C   UNL     1     -10.920  16.971  70.646  1.00  0.00     0.640 A  
ENDBRANCH  12  13
ENDBRANCH  11  12
ENDBRANCH   8  11
ENDBRANCH   4   5
ENDBRANCH   2   4
TORSDOF 5
ENDMDL
MODEL      180
REMARK 921   NORMALIZED FREE ENERGY PREDICTED BY IDOCK:   -2.95 KCAL/MOL
REMARK 922        TOTAL FREE ENERGY PREDICTED BY IDOCK:   -4.36 KCAL/MOL
REMARK 923 INTER-LIGAND FREE ENERGY PREDICTED BY IDOCK:   -5.14 KCAL/MOL
REMARK 924 INTRA-LIGAND FREE ENERGY PREDICTED BY IDOCK:    0.78 KCAL/MOL
REMARK 927      BINDING AFFINITY PREDICTED BY RF-SCORE:    0.00 PKD
ROOT
HETATM    1  O   UNL     1     -12.417   8.137  70.867  1.00  0.00    -0.495 OA 
HETATM    2  C   UNL     1     -11.796   9.416  70.766  1.00  0.00    -0.256 C  
HETATM    3  H   UNL     1     -12.752   8.025  71.749  1.00  0.00     0.000 HD 
ENDROOT
BRANCH   2   4
HETATM    4  C   UNL     1     -11.257   9.596  69.345  1.00  0.00    -0.077 C  
BRANCH   4   5
HETATM    5  N   UNL     1     -10.930  10.984  68.960  1.00  0.00    -0.216 NA 
HETATM    6  C   UNL     1      -9.459  11.168  69.010  1.00  0.00    -0.058 C  
HETATM    7  C   UNL     1      -8.707  10.456  67.859  1.00  0.00    -0.118 C  
HETATM    8  N   UNL     1      -9.176  10.843  66.506  1.00  0.00    -0.167 NA 
HETATM    9  C   UNL     1     -10.638  10.646  66.450  1.00  0.00    -0.175 C  
HETATM   10  C   UNL     1     -11.403  11.339  67.601  1.00  0.00    -0.282 C  
BRANCH   8  11
HETATM   11  C   UNL     1      -8.814  12.229  66.140  1.00  0.00     0.067 C  
BRANCH  11  12
HETATM   12  C   UNL     1      -8.369  12.987  67.394  1.00  0.00    -0.194 C  
BRANCH  12  13
HETATM   13  C   UNL     1      -7.811  14.361  67.226  1.00  0.00    -0.188 C  
HETATM   14  C   UNL     1      -8.214  15.536  67.791  1.00  0.00    -0.157 C  
HETATM   15  C   UNL     1      -7.424  16.772  67.364  1.00  0.00    -0.187 A  
HETATM   16  C   UNL     1      -6.205  16.698  66.646  1.00  0.00    -0.036 A  
HETATM   17  C   UNL     1      -5.506  17.833  66.216  1.00  0.00    -0.233 A  
HETATM   18  C   UNL     1      -5.982  19.090  66.523  1.00  0.00    -0.181 A  
HETATM   19  C   UNL     1      -7.157  19.203  67.254  1.00  0.00    -0.225 A  
HETATM   20  C   UNL     1      -7.882  18.064  67.670  1.00  0.00    -0.220 A  
HETATM   21  S   UNL     1      -9.364  18.444  68.559  1.00  0.00    -0.329 SA 
HETATM   22  C   UNL     1      -9.985  16.868  69.074  1.00  0.00    -0.265 A  
HETATM   23  C   UNL     1      -9.432  15.622  68.725  1.00  0.00    -0.214 A  
HETATM   24  C   UNL     1     -10.102  14.504  69.282  1.00  0.00    -0.083 A  
HETATM   25  C   UNL     1     -11.274  14.598  70.044  1.00  0.00    -0.209 A  
HETATM   26  C   UNL     1     -11.801  15.828  70.353  1.00  0.00    -0.391 A  
HETATM   27 CL   UNL     1     -12.069  13.162  70.572  1.00  0.00    -0.421 Cl 
HETATM   28  C   UNL     1     -11.147  16.957  69.886  1.00  0.00     0.174 A  
ENDBRANCH  12  13
ENDBRANCH  11  12
ENDBRANCH   8  11
ENDBRANCH   4   5
ENDBRANCH   2   4
TORSDOF 5
ENDMDL
MODEL      181
REMARK 921   NORMALIZED FREE ENERGY PREDICTED BY IDOCK:   -2.91 KCAL/MOL
REMARK 922        TOTAL FREE ENERGY PREDICTED BY IDOCK:   -4.31 KCAL/MOL
REMARK 923 INTER-LIGAND FREE ENERGY PREDICTED BY IDOCK:   -4.88 KCAL/MOL
REMARK 924 INTRA-LIGAND FREE ENERGY PREDICTED BY IDOCK:    0.57 KCAL/MOL
REMARK 927      BINDING AFFINITY PREDICTED BY RF-SCORE:    0.00 PKD
ROOT
HETATM    1  O   UNL     1      -5.431   9.403  70.311  1.00  0.00    -0.030 OA 
HETATM    2  C   UNL     1      -5.172   9.778  71.662  1.00  0.00    -0.076 C  
HETATM    3  H   UNL     1      -5.079  10.070  69.733  1.00  0.00     0.000 HD 
ENDROOT
BRANCH   2   4
HETATM    4  C   UNL     1      -5.738   8.705  72.594  1.00  0.00    -0.073 C  
BRANCH   4   5
HETATM    5  N   UNL     1      -7.105   8.955  73.095  1.00  0.00    -0.336 NA 
HETATM    6  C   UNL     1      -8.061   8.867  71.965  1.00  0.00     0.129 C  
HETATM    7  C   UNL     1      -8.292   7.421  71.462  1.00  0.00    -0.108 C  
HETATM    8  N   UNL     1      -8.737   6.481  72.519  1.00  0.00    -0.126 NA 
HETATM    9  C   UNL     1      -7.778   6.557  73.638  1.00  0.00    -0.091 C  
HETATM   10  C   UNL     1      -7.525   7.996  74.144  1.00  0.00    -0.179 C  
BRANCH   8  11
HETATM   11  C   UNL     1     -10.116   6.742  72.985  1.00  0.00    -0.191 C  
BRANCH  11  12
HETATM   12  C   UNL     1     -11.111   6.219  71.944  1.00  0.00    -0.315 C  
BRANCH  12  13
HETATM   13  C   UNL     1     -10.590   5.360  70.840  1.00  0.00    -0.283 C  
HETATM   14  C   UNL     1     -10.274   5.695  69.556  1.00  0.00    -0.320 C  
HETATM   15  C   UNL     1      -9.794   4.540  68.677  1.00  0.00    -0.168 A  
HETATM   16  C   UNL     1      -9.448   3.269  69.197  1.00  0.00    -0.189 A  
HETATM   17  C   UNL     1      -9.053   2.198  68.385  1.00  0.00    -0.213 A  
HETATM   18  C   UNL     1      -8.951   2.371  67.020  1.00  0.00    -0.160 A  
HETATM   19  C   UNL     1      -9.251   3.613  66.477  1.00  0.00    -0.183 A  
HETATM   20  C   UNL     1      -9.676   4.691  67.286  1.00  0.00    -0.185 A  
HETATM   21  S   UNL     1     -10.035   6.168  66.379  1.00  0.00    -0.017 SA 
HETATM   22  C   UNL     1     -10.396   7.373  67.625  1.00  0.00    -0.231 A  
HETATM   23  C   UNL     1     -10.470   7.118  69.007  1.00  0.00    -0.221 A  
HETATM   24  C   UNL     1     -10.755   8.257  69.801  1.00  0.00    -0.221 A  
HETATM   25  C   UNL     1     -11.035   9.524  69.275  1.00  0.00    -0.145 A  
HETATM   26  C   UNL     1     -10.973   9.739  67.919  1.00  0.00    -0.246 A  
HETATM   27 CL   UNL     1     -11.483  10.810  70.331  1.00  0.00    -0.398 Cl 
HETATM   28  C   UNL     1     -10.635   8.671  67.101  1.00  0.00    -0.304 A  
ENDBRANCH  12  13
ENDBRANCH  11  12
ENDBRANCH   8  11
ENDBRANCH   4   5
ENDBRANCH   2   4
TORSDOF 5
ENDMDL
MODEL      182
REMARK 921   NORMALIZED FREE ENERGY PREDICTED BY IDOCK:   -2.90 KCAL/MOL
REMARK 922        TOTAL FREE ENERGY PREDICTED BY IDOCK:   -4.30 KCAL/MOL
REMARK 923 INTER-LIGAND FREE ENERGY PREDICTED BY IDOCK:   -3.69 KCAL/MOL
REMARK 924 INTRA-LIGAND FREE ENERGY PREDICTED BY IDOCK:   -0.60 KCAL/MOL
REMARK 927      BINDING AFFINITY PREDICTED BY RF-SCORE:    0.00 PKD
ROOT
HETATM    1  O   UNL     1     -10.316   2.175  63.353  1.00  0.00    -0.135 OA 
HETATM    2  C   UNL     1      -9.249   1.839  64.236  1.00  0.00    -0.125 C  
HETATM    3  H   UNL     1     -10.564   1.402  62.860  1.00  0.00     0.000 HD 
ENDROOT
BRANCH   2   4
HETATM    4  C   UNL     1      -8.849   3.084  65.030  1.00  0.00    -0.125 C  
BRANCH   4   5
HETATM    5  N   UNL     1      -9.592   4.317  64.697  1.00  0.00    -0.164 NA 
HETATM    6  C   UNL     1     -10.617   4.563  65.741  1.00  0.00    -0.187 C  
HETATM    7  C   UNL     1     -10.024   5.043  67.088  1.00  0.00    -0.195 C  
HETATM    8  N   UNL     1      -9.178   6.256  66.974  1.00  0.00    -0.121 NA 
HETATM    9  C   UNL     1      -8.149   6.006  65.946  1.00  0.00    -0.119 C  
HETATM   10  C   UNL     1      -8.723   5.513  64.598  1.00  0.00    -0.013 C  
BRANCH   8  11
HETATM   11  C   UNL     1      -9.952   7.476  66.663  1.00  0.00    -0.200 C  
BRANCH  11  12
HETATM   12  C   UNL     1     -10.332   8.183  67.968  1.00  0.00    -0.267 C  
BRANCH  12  13
HETATM   13  C   UNL     1      -9.329   8.208  69.074  1.00  0.00    -0.147 C  
HETATM   14  C   UNL     1      -8.484   9.209  69.455  1.00  0.00    -0.130 C  
HETATM   15  C   UNL     1      -7.558   8.873  70.624  1.00  0.00    -0.101 A  
HETATM   16  C   UNL     1      -7.723   7.721  71.431  1.00  0.00    -0.082 A  
HETATM   17  C   UNL     1      -6.847   7.391  72.473  1.00  0.00    -0.067 A  
HETATM   18  C   UNL     1      -5.790   8.225  72.772  1.00  0.00    -0.063 A  
HETATM   19  C   UNL     1      -5.615   9.381  72.024  1.00  0.00    -0.053 A  
HETATM   20  C   UNL     1      -6.479   9.708  70.954  1.00  0.00    -0.083 A  
HETATM   21  S   UNL     1      -6.048  11.208  70.119  1.00  0.00    -0.147 SA 
HETATM   22  C   UNL     1      -7.352  11.447  68.945  1.00  0.00    -0.114 A  
HETATM   23  C   UNL     1      -8.407  10.548  68.705  1.00  0.00    -0.136 A  
HETATM   24  C   UNL     1      -9.337  10.980  67.726  1.00  0.00    -0.162 A  
HETATM   25  C   UNL     1      -9.192  12.155  66.979  1.00  0.00    -0.202 A  
HETATM   26  C   UNL     1      -8.141  13.005  67.221  1.00  0.00    -0.164 A  
HETATM   27 CL   UNL     1     -10.325  12.521  65.732  1.00  0.00    -0.279 Cl 
HETATM   28  C   UNL     1      -7.236  12.660  68.214  1.00  0.00    -0.113 A  
ENDBRANCH  12  13
ENDBRANCH  11  12
ENDBRANCH   8  11
ENDBRANCH   4   5
ENDBRANCH   2   4
TORSDOF 5
ENDMDL
MODEL      183
REMARK 921   NORMALIZED FREE ENERGY PREDICTED BY IDOCK:   -2.80 KCAL/MOL
REMARK 922        TOTAL FREE ENERGY PREDICTED BY IDOCK:   -4.17 KCAL/MOL
REMARK 923 INTER-LIGAND FREE ENERGY PREDICTED BY IDOCK:   -4.22 KCAL/MOL
REMARK 924 INTRA-LIGAND FREE ENERGY PREDICTED BY IDOCK:    0.04 KCAL/MOL
REMARK 927      BINDING AFFINITY PREDICTED BY RF-SCORE:    0.00 PKD
ROOT
HETATM    1  O   UNL     1     -14.247   9.312  72.841  1.00  0.00    -0.954 OA 
HETATM    2  C   UNL     1     -13.497   9.824  71.742  1.00  0.00    -0.376 C  
HETATM    3  H   UNL     1     -15.132   9.657  72.798  1.00  0.00     0.000 HD 
ENDROOT
BRANCH   2   4
HETATM    4  C   UNL     1     -12.073   9.268  71.811  1.00  0.00    -0.387 C  
BRANCH   4   5
HETATM    5  N   UNL     1     -11.609   8.553  70.605  1.00  0.00    -0.241 NA 
HETATM    6  C   UNL     1     -11.244   9.544  69.563  1.00  0.00    -0.074 C  
HETATM    7  C   UNL     1      -9.929  10.303  69.866  1.00  0.00    -0.135 C  
HETATM    8  N   UNL     1      -8.762   9.416  70.091  1.00  0.00    -0.202 NA 
HETATM    9  C   UNL     1      -9.118   8.439  71.138  1.00  0.00    -0.174 C  
HETATM   10  C   UNL     1     -10.437   7.682  70.858  1.00  0.00    -0.206 C  
BRANCH   8  11
HETATM   11  C   UNL     1      -8.307   8.732  68.862  1.00  0.00    -0.127 C  
BRANCH  11  12
HETATM   12  C   UNL     1      -7.024   7.950  69.160  1.00  0.00    -0.057 C  
BRANCH  12  13
HETATM   13  C   UNL     1      -7.145   6.640  69.866  1.00  0.00    -0.068 C  
HETATM   14  C   UNL     1      -7.436   5.407  69.361  1.00  0.00    -0.070 C  
HETATM   15  C   UNL     1      -7.511   4.279  70.391  1.00  0.00    -0.045 A  
HETATM   16  C   UNL     1      -7.065   4.425  71.727  1.00  0.00    -0.054 A  
HETATM   17  C   UNL     1      -7.176   3.406  72.682  1.00  0.00    -0.048 A  
HETATM   18  C   UNL     1      -7.707   2.184  72.323  1.00  0.00    -0.045 A  
HETATM   19  C   UNL     1      -8.125   1.993  71.013  1.00  0.00    -0.054 A  
HETATM   20  C   UNL     1      -8.040   3.024  70.051  1.00  0.00    -0.044 A  
HETATM   21  S   UNL     1      -8.661   2.569  68.458  1.00  0.00    -0.089 SA 
HETATM   22  C   UNL     1      -8.306   3.968  67.431  1.00  0.00    -0.098 A  
HETATM   23  C   UNL     1      -7.751   5.182  67.874  1.00  0.00    -0.087 A  
HETATM   24  C   UNL     1      -7.544   6.142  66.851  1.00  0.00    -0.099 A  
HETATM   25  C   UNL     1      -7.935   5.958  65.520  1.00  0.00    -0.117 A  
HETATM   26  C   UNL     1      -8.492   4.768  65.119  1.00  0.00    -0.135 A  
HETATM   27 CL   UNL     1      -7.739   7.241  64.385  1.00  0.00    -0.115 Cl 
HETATM   28  C   UNL     1      -8.658   3.771  66.069  1.00  0.00    -0.113 A  
ENDBRANCH  12  13
ENDBRANCH  11  12
ENDBRANCH   8  11
ENDBRANCH   4   5
ENDBRANCH   2   4
TORSDOF 5
ENDMDL
MODEL      184
REMARK 921   NORMALIZED FREE ENERGY PREDICTED BY IDOCK:   -2.77 KCAL/MOL
REMARK 922        TOTAL FREE ENERGY PREDICTED BY IDOCK:   -4.13 KCAL/MOL
REMARK 923 INTER-LIGAND FREE ENERGY PREDICTED BY IDOCK:   -3.66 KCAL/MOL
REMARK 924 INTRA-LIGAND FREE ENERGY PREDICTED BY IDOCK:   -0.47 KCAL/MOL
REMARK 927      BINDING AFFINITY PREDICTED BY RF-SCORE:    0.00 PKD
ROOT
HETATM    1  O   UNL     1     -13.651  11.738  63.675  1.00  0.00    -0.294 OA 
HETATM    2  C   UNL     1     -12.382  12.241  63.264  1.00  0.00    -0.409 C  
HETATM    3  H   UNL     1     -14.322  12.090  63.101  1.00  0.00     0.000 HD 
ENDROOT
BRANCH   2   4
HETATM    4  C   UNL     1     -11.301  11.674  64.188  1.00  0.00    -0.317 C  
BRANCH   4   5
HETATM    5  N   UNL     1     -11.367  12.121  65.594  1.00  0.00    -0.340 NA 
HETATM    6  C   UNL     1     -10.157  11.652  66.311  1.00  0.00    -0.221 C  
HETATM    7  C   UNL     1      -8.869  12.416  65.917  1.00  0.00     0.316 C  
HETATM    8  N   UNL     1      -8.968  13.886  66.088  1.00  0.00     0.099 NA 
HETATM    9  C   UNL     1     -10.163  14.357  65.362  1.00  0.00    -0.382 C  
HETATM   10  C   UNL     1     -11.456  13.594  65.734  1.00  0.00    -0.315 C  
BRANCH   8  11
HETATM   11  C   UNL     1      -9.009  14.304  67.505  1.00  0.00    -0.196 C  
BRANCH  11  12
HETATM   12  C   UNL     1      -7.662  14.922  67.893  1.00  0.00    -0.151 C  
BRANCH  12  13
HETATM   13  C   UNL     1      -7.313  16.260  67.331  1.00  0.00    -0.193 C  
HETATM   14  C   UNL     1      -6.606  17.281  67.897  1.00  0.00    -0.161 C  
HETATM   15  C   UNL     1      -6.467  18.536  67.037  1.00  0.00    -0.198 A  
HETATM   16  C   UNL     1      -6.807  18.571  65.662  1.00  0.00    -0.279 A  
HETATM   17  C   UNL     1      -6.722  19.734  64.887  1.00  0.00    -0.153 A  
HETATM   18  C   UNL     1      -6.254  20.902  65.451  1.00  0.00    -0.259 A  
HETATM   19  C   UNL     1      -5.879  20.900  66.787  1.00  0.00    -0.284 A  
HETATM   20  C   UNL     1      -5.986  19.737  67.583  1.00  0.00    -0.190 A  
HETATM   21  S   UNL     1      -5.485  19.972  69.264  1.00  0.00    -0.238 SA 
HETATM   22  C   UNL     1      -5.581  18.356  69.982  1.00  0.00    -0.243 A  
HETATM   23  C   UNL     1      -6.063  17.205  69.333  1.00  0.00    -0.230 A  
HETATM   24  C   UNL     1      -6.019  16.025  70.118  1.00  0.00    -0.135 A  
HETATM   25  C   UNL     1      -5.620  15.996  71.460  1.00  0.00     0.447 A  
HETATM   26  C   UNL     1      -5.171  17.141  72.073  1.00  0.00     0.864 A  
HETATM   27 CL   UNL     1      -5.717  14.524  72.351  1.00  0.00     0.016 Cl 
HETATM   28  C   UNL     1      -5.134  18.311  71.330  1.00  0.00    -0.218 A  
ENDBRANCH  12  13
ENDBRANCH  11  12
ENDBRANCH   8  11
ENDBRANCH   4   5
ENDBRANCH   2   4
TORSDOF 5
ENDMDL
MODEL      185
REMARK 921   NORMALIZED FREE ENERGY PREDICTED BY IDOCK:   -2.76 KCAL/MOL
REMARK 922        TOTAL FREE ENERGY PREDICTED BY IDOCK:   -4.12 KCAL/MOL
REMARK 923 INTER-LIGAND FREE ENERGY PREDICTED BY IDOCK:   -3.61 KCAL/MOL
REMARK 924 INTRA-LIGAND FREE ENERGY PREDICTED BY IDOCK:   -0.51 KCAL/MOL
REMARK 927      BINDING AFFINITY PREDICTED BY RF-SCORE:    0.00 PKD
ROOT
HETATM    1  O   UNL     1     -10.415   2.003  62.789  1.00  0.00    -0.103 OA 
HETATM    2  C   UNL     1      -9.523   1.478  63.769  1.00  0.00    -0.114 C  
HETATM    3  H   UNL     1     -10.726   1.291  62.242  1.00  0.00     0.000 HD 
ENDROOT
BRANCH   2   4
HETATM    4  C   UNL     1      -9.022   2.624  64.650  1.00  0.00    -0.124 C  
BRANCH   4   5
HETATM    5  N   UNL     1      -9.531   3.966  64.300  1.00  0.00    -0.152 NA 
HETATM    6  C   UNL     1     -10.676   4.296  65.181  1.00  0.00    -0.105 C  
HETATM    7  C   UNL     1     -10.263   4.612  66.640  1.00  0.00    -0.213 C  
HETATM    8  N   UNL     1      -9.260   5.697  66.757  1.00  0.00    -0.125 NA 
HETATM    9  C   UNL     1      -8.112   5.362  65.892  1.00  0.00    -0.108 C  
HETATM   10  C   UNL     1      -8.509   5.030  64.435  1.00  0.00    -0.142 C  
BRANCH   8  11
HETATM   11  C   UNL     1      -9.804   7.030  66.423  1.00  0.00    -0.035 C  
BRANCH  11  12
HETATM   12  C   UNL     1     -10.412   7.661  67.679  1.00  0.00    -0.313 C  
BRANCH  12  13
HETATM   13  C   UNL     1      -9.965   7.154  69.010  1.00  0.00    -0.174 C  
HETATM   14  C   UNL     1      -9.098   7.711  69.904  1.00  0.00    -0.147 C  
HETATM   15  C   UNL     1      -8.843   6.889  71.167  1.00  0.00    -0.142 A  
HETATM   16  C   UNL     1      -9.626   5.765  71.526  1.00  0.00    -0.181 A  
HETATM   17  C   UNL     1      -9.363   4.986  72.660  1.00  0.00    -0.150 A  
HETATM   18  C   UNL     1      -8.324   5.327  73.502  1.00  0.00    -0.113 A  
HETATM   19  C   UNL     1      -7.554   6.442  73.200  1.00  0.00    -0.094 A  
HETATM   20  C   UNL     1      -7.797   7.218  72.044  1.00  0.00    -0.090 A  
HETATM   21  S   UNL     1      -6.674   8.570  71.842  1.00  0.00    -0.077 SA 
HETATM   22  C   UNL     1      -7.284   9.440  70.425  1.00  0.00    -0.111 A  
HETATM   23  C   UNL     1      -8.362   9.031  69.621  1.00  0.00    -0.125 A  
HETATM   24  C   UNL     1      -8.670   9.913  68.554  1.00  0.00    -0.121 A  
HETATM   25  C   UNL     1      -7.921  11.056  68.249  1.00  0.00    -0.124 A  
HETATM   26  C   UNL     1      -6.861  11.422  69.042  1.00  0.00    -0.102 A  
HETATM   27 CL   UNL     1      -8.318  11.992  66.857  1.00  0.00    -0.173 Cl 
HETATM   28  C   UNL     1      -6.557  10.627  70.137  1.00  0.00    -0.151 A  
ENDBRANCH  12  13
ENDBRANCH  11  12
ENDBRANCH   8  11
ENDBRANCH   4   5
ENDBRANCH   2   4
TORSDOF 5
ENDMDL
MODEL      186
REMARK 921   NORMALIZED FREE ENERGY PREDICTED BY IDOCK:   -2.66 KCAL/MOL
REMARK 922        TOTAL FREE ENERGY PREDICTED BY IDOCK:   -3.99 KCAL/MOL
REMARK 923 INTER-LIGAND FREE ENERGY PREDICTED BY IDOCK:   -4.03 KCAL/MOL
REMARK 924 INTRA-LIGAND FREE ENERGY PREDICTED BY IDOCK:    0.04 KCAL/MOL
REMARK 927      BINDING AFFINITY PREDICTED BY RF-SCORE:    0.00 PKD
ROOT
HETATM    1  O   UNL     1      -6.602   9.363  74.215  1.00  0.00    -0.343 OA 
HETATM    2  C   UNL     1      -5.843   8.161  74.321  1.00  0.00    -0.093 C  
HETATM    3  H   UNL     1      -6.012  10.106  74.262  1.00  0.00     0.000 HD 
ENDROOT
BRANCH   2   4
HETATM    4  C   UNL     1      -6.794   6.964  74.246  1.00  0.00    -0.086 C  
BRANCH   4   5
HETATM    5  N   UNL     1      -6.732   6.181  72.996  1.00  0.00    -0.073 NA 
HETATM    6  C   UNL     1      -7.450   4.898  73.191  1.00  0.00    -0.088 C  
HETATM    7  C   UNL     1      -8.990   5.055  73.256  1.00  0.00    -0.119 C  
HETATM    8  N   UNL     1      -9.573   5.737  72.076  1.00  0.00    -0.150 NA 
HETATM    9  C   UNL     1      -8.870   7.021  71.890  1.00  0.00    -0.125 C  
HETATM   10  C   UNL     1      -7.330   6.885  71.837  1.00  0.00    -0.087 C  
BRANCH   8  11
HETATM   11  C   UNL     1      -9.518   4.920  70.845  1.00  0.00    -0.165 C  
BRANCH  11  12
HETATM   12  C   UNL     1     -10.575   5.420  69.855  1.00  0.00    -0.351 C  
BRANCH  12  13
HETATM   13  C   UNL     1     -10.705   6.893  69.646  1.00  0.00    -0.276 C  
HETATM   14  C   UNL     1      -9.970   7.723  68.852  1.00  0.00    -0.185 C  
HETATM   15  C   UNL     1     -10.364   9.200  68.909  1.00  0.00    -0.232 A  
HETATM   16  C   UNL     1     -11.554   9.657  69.525  1.00  0.00     0.092 A  
HETATM   17  C   UNL     1     -11.891  11.013  69.617  1.00  0.00    -0.414 A  
HETATM   18  C   UNL     1     -11.064  11.965  69.058  1.00  0.00    -0.300 A  
HETATM   19  C   UNL     1      -9.903  11.553  68.416  1.00  0.00    -0.204 A  
HETATM   20  C   UNL     1      -9.544  10.188  68.342  1.00  0.00    -0.143 A  
HETATM   21  S   UNL     1      -8.010   9.897  67.509  1.00  0.00    -0.105 SA 
HETATM   22  C   UNL     1      -7.878   8.133  67.434  1.00  0.00    -0.106 A  
HETATM   23  C   UNL     1      -8.775   7.224  68.024  1.00  0.00    -0.127 A  
HETATM   24  C   UNL     1      -8.461   5.859  67.804  1.00  0.00    -0.107 A  
HETATM   25  C   UNL     1      -7.309   5.423  67.137  1.00  0.00    -0.083 A  
HETATM   26  C   UNL     1      -6.441   6.334  66.587  1.00  0.00    -0.046 A  
HETATM   27 CL   UNL     1      -6.969   3.737  67.030  1.00  0.00    -0.054 Cl 
HETATM   28  C   UNL     1      -6.736   7.683  66.719  1.00  0.00    -0.066 A  
ENDBRANCH  12  13
ENDBRANCH  11  12
ENDBRANCH   8  11
ENDBRANCH   4   5
ENDBRANCH   2   4
TORSDOF 5
ENDMDL
MODEL      187
REMARK 921   NORMALIZED FREE ENERGY PREDICTED BY IDOCK:   -2.62 KCAL/MOL
REMARK 922        TOTAL FREE ENERGY PREDICTED BY IDOCK:   -3.94 KCAL/MOL
REMARK 923 INTER-LIGAND FREE ENERGY PREDICTED BY IDOCK:   -4.93 KCAL/MOL
REMARK 924 INTRA-LIGAND FREE ENERGY PREDICTED BY IDOCK:    0.99 KCAL/MOL
REMARK 927      BINDING AFFINITY PREDICTED BY RF-SCORE:    0.00 PKD
ROOT
HETATM    1  O   UNL     1      -7.555   4.357  73.315  1.00  0.00    -0.079 OA 
HETATM    2  C   UNL     1      -8.394   3.547  72.495  1.00  0.00    -0.085 C  
HETATM    3  H   UNL     1      -6.793   3.850  73.573  1.00  0.00     0.000 HD 
ENDROOT
BRANCH   2   4
HETATM    4  C   UNL     1      -9.620   4.364  72.080  1.00  0.00    -0.151 C  
BRANCH   4   5
HETATM    5  N   UNL     1      -9.369   5.793  71.805  1.00  0.00    -0.148 NA 
HETATM    6  C   UNL     1      -8.656   5.922  70.511  1.00  0.00    -0.136 C  
HETATM    7  C   UNL     1      -9.552   5.634  69.281  1.00  0.00    -0.138 C  
HETATM    8  N   UNL     1     -10.775   6.469  69.221  1.00  0.00    -0.251 NA 
HETATM    9  C   UNL     1     -11.494   6.330  70.502  1.00  0.00    -0.338 C  
HETATM   10  C   UNL     1     -10.610   6.601  71.742  1.00  0.00    -0.215 C  
BRANCH   8  11
HETATM   11  C   UNL     1     -10.495   7.889  68.922  1.00  0.00    -0.190 C  
BRANCH  11  12
HETATM   12  C   UNL     1      -8.983   8.089  68.776  1.00  0.00    -0.141 C  
BRANCH  12  13
HETATM   13  C   UNL     1      -8.415   8.195  67.399  1.00  0.00    -0.126 C  
HETATM   14  C   UNL     1      -8.603   9.162  66.456  1.00  0.00    -0.136 C  
HETATM   15  C   UNL     1      -7.883   8.929  65.128  1.00  0.00    -0.106 A  
HETATM   16  C   UNL     1      -6.889   7.935  64.954  1.00  0.00    -0.054 A  
HETATM   17  C   UNL     1      -6.263   7.692  63.725  1.00  0.00    -0.054 A  
HETATM   18  C   UNL     1      -6.582   8.464  62.628  1.00  0.00    -0.091 A  
HETATM   19  C   UNL     1      -7.528   9.471  62.767  1.00  0.00    -0.108 A  
HETATM   20  C   UNL     1      -8.183   9.705  63.997  1.00  0.00    -0.159 A  
HETATM   21  S   UNL     1      -9.373  11.013  63.936  1.00  0.00    -0.192 SA 
HETATM   22  C   UNL     1      -9.925  11.185  65.610  1.00  0.00    -0.249 A  
HETATM   23  C   UNL     1      -9.542  10.358  66.681  1.00  0.00    -0.219 A  
HETATM   24  C   UNL     1     -10.107  10.715  67.931  1.00  0.00    -0.194 A  
HETATM   25  C   UNL     1     -11.044  11.743  68.098  1.00  0.00    -0.243 A  
HETATM   26  C   UNL     1     -11.413  12.522  67.029  1.00  0.00    -0.419 A  
HETATM   27 CL   UNL     1     -11.753  12.012  69.646  1.00  0.00    -0.391 Cl 
HETATM   28  C   UNL     1     -10.840  12.255  65.794  1.00  0.00    -0.313 A  
ENDBRANCH  12  13
ENDBRANCH  11  12
ENDBRANCH   8  11
ENDBRANCH   4   5
ENDBRANCH   2   4
TORSDOF 5
ENDMDL
MODEL      188
REMARK 921   NORMALIZED FREE ENERGY PREDICTED BY IDOCK:   -2.55 KCAL/MOL
REMARK 922        TOTAL FREE ENERGY PREDICTED BY IDOCK:   -3.85 KCAL/MOL
REMARK 923 INTER-LIGAND FREE ENERGY PREDICTED BY IDOCK:   -3.09 KCAL/MOL
REMARK 924 INTRA-LIGAND FREE ENERGY PREDICTED BY IDOCK:   -0.76 KCAL/MOL
REMARK 927      BINDING AFFINITY PREDICTED BY RF-SCORE:    0.00 PKD
ROOT
HETATM    1  O   UNL     1      -9.636   2.895  70.664  1.00  0.00    -0.156 OA 
HETATM    2  C   UNL     1      -9.076   3.306  71.909  1.00  0.00    -0.109 C  
HETATM    3  H   UNL     1      -9.836   1.967  70.708  1.00  0.00     0.000 HD 
ENDROOT
BRANCH   2   4
HETATM    4  C   UNL     1      -8.754   4.801  71.839  1.00  0.00    -0.123 C  
BRANCH   4   5
HETATM    5  N   UNL     1      -7.329   5.137  71.639  1.00  0.00    -0.080 NA 
HETATM    6  C   UNL     1      -6.994   4.999  70.202  1.00  0.00    -0.052 C  
HETATM    7  C   UNL     1      -7.591   6.121  69.317  1.00  0.00    -0.098 C  
HETATM    8  N   UNL     1      -7.218   7.489  69.751  1.00  0.00    -0.078 NA 
HETATM    9  C   UNL     1      -7.565   7.633  71.178  1.00  0.00    -0.080 C  
HETATM   10  C   UNL     1      -6.988   6.512  72.074  1.00  0.00    -0.073 C  
BRANCH   8  11
HETATM   11  C   UNL     1      -5.793   7.804  69.518  1.00  0.00    -0.023 C  
BRANCH  11  12
HETATM   12  C   UNL     1      -5.663   8.684  68.272  1.00  0.00    -0.038 C  
BRANCH  12  13
HETATM   13  C   UNL     1      -6.765   9.647  67.971  1.00  0.00    -0.062 C  
HETATM   14  C   UNL     1      -7.632   9.670  66.918  1.00  0.00    -0.095 C  
HETATM   15  C   UNL     1      -8.622  10.835  66.913  1.00  0.00    -0.132 A  
HETATM   16  C   UNL     1      -8.819  11.685  68.028  1.00  0.00    -0.162 A  
HETATM   17  C   UNL     1      -9.693  12.779  68.006  1.00  0.00    -0.220 A  
HETATM   18  C   UNL     1     -10.436  13.041  66.873  1.00  0.00    -0.258 A  
HETATM   19  C   UNL     1     -10.295  12.210  65.771  1.00  0.00    -0.289 A  
HETATM   20  C   UNL     1      -9.396  11.120  65.776  1.00  0.00    -0.214 A  
HETATM   21  S   UNL     1      -9.355  10.218  64.254  1.00  0.00    -0.298 SA 
HETATM   22  C   UNL     1      -8.279   8.851  64.581  1.00  0.00    -0.163 A  
HETATM   23  C   UNL     1      -7.561   8.647  65.773  1.00  0.00    -0.089 A  
HETATM   24  C   UNL     1      -6.782   7.463  65.796  1.00  0.00    -0.052 A  
HETATM   25  C   UNL     1      -6.647   6.598  64.704  1.00  0.00    -0.042 A  
HETATM   26  C   UNL     1      -7.346   6.832  63.545  1.00  0.00    -0.073 A  
HETATM   27 CL   UNL     1      -5.579   5.249  64.807  1.00  0.00    -0.016 Cl 
HETATM   28  C   UNL     1      -8.173   7.944  63.492  1.00  0.00    -0.009 A  
ENDBRANCH  12  13
ENDBRANCH  11  12
ENDBRANCH   8  11
ENDBRANCH   4   5
ENDBRANCH   2   4
TORSDOF 5
ENDMDL
MODEL      189
REMARK 921   NORMALIZED FREE ENERGY PREDICTED BY IDOCK:   -2.17 KCAL/MOL
REMARK 922        TOTAL FREE ENERGY PREDICTED BY IDOCK:   -3.35 KCAL/MOL
REMARK 923 INTER-LIGAND FREE ENERGY PREDICTED BY IDOCK:   -4.19 KCAL/MOL
REMARK 924 INTRA-LIGAND FREE ENERGY PREDICTED BY IDOCK:    0.84 KCAL/MOL
REMARK 927      BINDING AFFINITY PREDICTED BY RF-SCORE:    0.00 PKD
ROOT
HETATM    1  O   UNL     1      -5.902  10.384  62.330  1.00  0.00    -0.109 OA 
HETATM    2  C   UNL     1      -5.953   9.442  63.399  1.00  0.00    -0.090 C  
HETATM    3  H   UNL     1      -5.312  10.059  61.660  1.00  0.00     0.000 HD 
ENDROOT
BRANCH   2   4
HETATM    4  C   UNL     1      -6.904   9.966  64.478  1.00  0.00    -0.124 C  
BRANCH   4   5
HETATM    5  N   UNL     1      -6.359   9.989  65.850  1.00  0.00    -0.084 NA 
HETATM    6  C   UNL     1      -7.473   9.846  66.818  1.00  0.00    -0.095 C  
HETATM    7  C   UNL     1      -8.073   8.419  66.863  1.00  0.00    -0.099 C  
HETATM    8  N   UNL     1      -7.076   7.358  67.144  1.00  0.00    -0.082 NA 
HETATM    9  C   UNL     1      -5.974   7.490  66.172  1.00  0.00    -0.037 C  
HETATM   10  C   UNL     1      -5.373   8.913  66.104  1.00  0.00    -0.037 C  
BRANCH   8  11
HETATM   11  C   UNL     1      -6.566   7.392  68.531  1.00  0.00    -0.049 C  
BRANCH  11  12
HETATM   12  C   UNL     1      -7.747   7.420  69.507  1.00  0.00    -0.108 C  
BRANCH  12  13
HETATM   13  C   UNL     1      -8.636   8.620  69.504  1.00  0.00    -0.131 C  
HETATM   14  C   UNL     1      -9.703   8.910  70.303  1.00  0.00    -0.212 C  
HETATM   15  C   UNL     1     -10.412  10.228  69.995  1.00  0.00    -0.293 A  
HETATM   16  C   UNL     1      -9.871  11.210  69.128  1.00  0.00    -0.074 A  
HETATM   17  C   UNL     1     -10.544  12.397  68.810  1.00  0.00    -0.213 A  
HETATM   18  C   UNL     1     -11.771  12.665  69.381  1.00  0.00    -0.387 A  
HETATM   19  C   UNL     1     -12.318  11.741  70.261  1.00  0.00    -0.320 A  
HETATM   20  C   UNL     1     -11.658  10.530  70.567  1.00  0.00    -0.350 A  
HETATM   21  S   UNL     1     -12.553   9.490  71.684  1.00  0.00    -0.416 SA 
HETATM   22  C   UNL     1     -11.456   8.136  72.001  1.00  0.00    -0.320 A  
HETATM   23  C   UNL     1     -10.208   7.939  71.382  1.00  0.00    -0.226 A  
HETATM   24  C   UNL     1      -9.509   6.787  71.823  1.00  0.00    -0.150 A  
HETATM   25  C   UNL     1     -10.032   5.857  72.729  1.00  0.00    -0.179 A  
HETATM   26  C   UNL     1     -11.262   6.067  73.304  1.00  0.00    -0.103 A  
HETATM   27 CL   UNL     1      -9.139   4.431  73.104  1.00  0.00    -0.122 Cl 
HETATM   28  C   UNL     1     -11.961   7.213  72.955  1.00  0.00     0.220 A  
ENDBRANCH  12  13
ENDBRANCH  11  12
ENDBRANCH   8  11
ENDBRANCH   4   5
ENDBRANCH   2   4
TORSDOF 5
ENDMDL
MODEL      190
REMARK 921   NORMALIZED FREE ENERGY PREDICTED BY IDOCK:   -2.11 KCAL/MOL
REMARK 922        TOTAL FREE ENERGY PREDICTED BY IDOCK:   -3.27 KCAL/MOL
REMARK 923 INTER-LIGAND FREE ENERGY PREDICTED BY IDOCK:   -3.86 KCAL/MOL
REMARK 924 INTRA-LIGAND FREE ENERGY PREDICTED BY IDOCK:    0.59 KCAL/MOL
REMARK 927      BINDING AFFINITY PREDICTED BY RF-SCORE:    0.00 PKD
ROOT
HETATM    1  O   UNL     1      -9.893  16.342  66.032  1.00  0.00    -0.305 OA 
HETATM    2  C   UNL     1      -9.450  16.182  67.378  1.00  0.00    -0.226 C  
HETATM    3  H   UNL     1     -10.528  17.048  65.998  1.00  0.00     0.000 HD 
ENDROOT
BRANCH   2   4
HETATM    4  C   UNL     1      -8.427  15.046  67.433  1.00  0.00    -0.184 C  
BRANCH   4   5
HETATM    5  N   UNL     1      -8.543  14.142  68.596  1.00  0.00    -0.157 NA 
HETATM    6  C   UNL     1      -9.072  12.833  68.143  1.00  0.00    -0.203 C  
HETATM    7  C   UNL     1      -8.046  11.996  67.338  1.00  0.00    -0.168 C  
HETATM    8  N   UNL     1      -6.771  11.758  68.057  1.00  0.00    -0.065 NA 
HETATM    9  C   UNL     1      -6.236  13.061  68.495  1.00  0.00    -0.078 C  
HETATM   10  C   UNL     1      -7.252  13.915  69.288  1.00  0.00     0.016 C  
BRANCH   8  11
HETATM   11  C   UNL     1      -6.914  10.832  69.201  1.00  0.00    -0.091 C  
BRANCH  11  12
HETATM   12  C   UNL     1      -8.391  10.473  69.384  1.00  0.00    -0.117 C  
BRANCH  12  13
HETATM   13  C   UNL     1      -8.728   9.261  70.188  1.00  0.00    -0.224 C  
HETATM   14  C   UNL     1      -8.697   7.946  69.827  1.00  0.00    -0.137 C  
HETATM   15  C   UNL     1      -9.144   6.961  70.907  1.00  0.00    -0.153 A  
HETATM   16  C   UNL     1      -9.332   7.334  72.261  1.00  0.00    -0.162 A  
HETATM   17  C   UNL     1      -9.787   6.441  73.240  1.00  0.00    -0.181 A  
HETATM   18  C   UNL     1     -10.034   5.125  72.907  1.00  0.00    -0.187 A  
HETATM   19  C   UNL     1      -9.830   4.714  71.597  1.00  0.00    -0.253 A  
HETATM   20  C   UNL     1      -9.397   5.615  70.598  1.00  0.00    -0.159 A  
HETATM   21  S   UNL     1      -9.236   4.882  68.995  1.00  0.00    -0.128 SA 
HETATM   22  C   UNL     1      -8.554   6.170  67.989  1.00  0.00    -0.115 A  
HETATM   23  C   UNL     1      -8.320   7.492  68.408  1.00  0.00    -0.125 A  
HETATM   24  C   UNL     1      -7.747   8.330  67.418  1.00  0.00    -0.102 A  
HETATM   25  C   UNL     1      -7.509   7.927  66.099  1.00  0.00    -0.079 A  
HETATM   26  C   UNL     1      -7.765   6.634  65.713  1.00  0.00    -0.092 A  
HETATM   27 CL   UNL     1      -6.917   9.067  64.949  1.00  0.00    -0.076 Cl 
HETATM   28  C   UNL     1      -8.267   5.755  66.661  1.00  0.00    -0.106 A  
ENDBRANCH  12  13
ENDBRANCH  11  12
ENDBRANCH   8  11
ENDBRANCH   4   5
ENDBRANCH   2   4
TORSDOF 5
ENDMDL
MODEL      191
REMARK 921   NORMALIZED FREE ENERGY PREDICTED BY IDOCK:   -1.91 KCAL/MOL
REMARK 922        TOTAL FREE ENERGY PREDICTED BY IDOCK:   -3.02 KCAL/MOL
REMARK 923 INTER-LIGAND FREE ENERGY PREDICTED BY IDOCK:   -3.01 KCAL/MOL
REMARK 924 INTRA-LIGAND FREE ENERGY PREDICTED BY IDOCK:   -0.02 KCAL/MOL
REMARK 927      BINDING AFFINITY PREDICTED BY RF-SCORE:    0.00 PKD
ROOT
HETATM    1  O   UNL     1      -6.660  10.185  68.594  1.00  0.00    -0.052 OA 
HETATM    2  C   UNL     1      -6.623  10.826  69.867  1.00  0.00    -0.149 C  
HETATM    3  H   UNL     1      -7.194  10.704  68.003  1.00  0.00     0.000 HD 
ENDROOT
BRANCH   2   4
HETATM    4  C   UNL     1      -5.763   9.991  70.819  1.00  0.00    -0.084 C  
BRANCH   4   5
HETATM    5  N   UNL     1      -6.496   9.299  71.898  1.00  0.00    -0.289 NA 
HETATM    6  C   UNL     1      -7.696   8.642  71.327  1.00  0.00    -0.118 C  
HETATM    7  C   UNL     1      -7.368   7.392  70.474  1.00  0.00    -0.076 C  
HETATM    8  N   UNL     1      -6.575   6.365  71.192  1.00  0.00    -0.049 NA 
HETATM    9  C   UNL     1      -5.373   7.016  71.749  1.00  0.00    -0.035 C  
HETATM   10  C   UNL     1      -5.681   8.274  72.593  1.00  0.00    -0.051 C  
BRANCH   8  11
HETATM   11  C   UNL     1      -7.342   5.675  72.251  1.00  0.00    -0.095 C  
BRANCH  11  12
HETATM   12  C   UNL     1      -8.077   4.475  71.646  1.00  0.00    -0.101 C  
BRANCH  12  13
HETATM   13  C   UNL     1      -7.511   3.849  70.414  1.00  0.00    -0.041 C  
HETATM   14  C   UNL     1      -7.876   4.017  69.111  1.00  0.00    -0.056 C  
HETATM   15  C   UNL     1      -7.091   3.181  68.099  1.00  0.00    -0.050 A  
HETATM   16  C   UNL     1      -5.906   2.481  68.432  1.00  0.00    -0.023 A  
HETATM   17  C   UNL     1      -5.213   1.680  67.516  1.00  0.00    -0.012 A  
HETATM   18  C   UNL     1      -5.662   1.579  66.215  1.00  0.00    -0.017 A  
HETATM   19  C   UNL     1      -6.803   2.277  65.842  1.00  0.00    -0.039 A  
HETATM   20  C   UNL     1      -7.522   3.067  66.767  1.00  0.00    -0.075 A  
HETATM   21  S   UNL     1      -8.960   3.839  66.084  1.00  0.00    -0.143 SA 
HETATM   22  C   UNL     1      -9.575   4.861  67.392  1.00  0.00    -0.152 A  
HETATM   23  C   UNL     1      -9.052   4.916  68.696  1.00  0.00    -0.145 A  
HETATM   24  C   UNL     1      -9.710   5.831  69.557  1.00  0.00    -0.199 A  
HETATM   25  C   UNL     1     -10.846   6.563  69.192  1.00  0.00    -0.302 A  
HETATM   26  C   UNL     1     -11.347   6.476  67.916  1.00  0.00    -0.096 A  
HETATM   27 CL   UNL     1     -11.633   7.559  70.359  1.00  0.00    -0.224 Cl 
HETATM   28  C   UNL     1     -10.700   5.642  67.015  1.00  0.00    -0.332 A  
ENDBRANCH  12  13
ENDBRANCH  11  12
ENDBRANCH   8  11
ENDBRANCH   4   5
ENDBRANCH   2   4
TORSDOF 5
ENDMDL
MODEL      192
REMARK 921   NORMALIZED FREE ENERGY PREDICTED BY IDOCK:   -1.89 KCAL/MOL
REMARK 922        TOTAL FREE ENERGY PREDICTED BY IDOCK:   -3.00 KCAL/MOL
REMARK 923 INTER-LIGAND FREE ENERGY PREDICTED BY IDOCK:   -2.91 KCAL/MOL
REMARK 924 INTRA-LIGAND FREE ENERGY PREDICTED BY IDOCK:   -0.09 KCAL/MOL
REMARK 927      BINDING AFFINITY PREDICTED BY RF-SCORE:    0.00 PKD
ROOT
HETATM    1  O   UNL     1     -14.059   9.275  71.768  1.00  0.00    -0.299 OA 
HETATM    2  C   UNL     1     -13.190  10.396  71.616  1.00  0.00    -0.400 C  
HETATM    3  H   UNL     1     -14.957   9.584  71.801  1.00  0.00     0.000 HD 
ENDROOT
BRANCH   2   4
HETATM    4  C   UNL     1     -11.743   9.899  71.563  1.00  0.00    -0.337 C  
BRANCH   4   5
HETATM    5  N   UNL     1     -11.401   9.057  70.399  1.00  0.00    -0.242 NA 
HETATM    6  C   UNL     1     -11.895   9.712  69.164  1.00  0.00     0.592 C  
HETATM    7  C   UNL     1     -11.076  10.961  68.757  1.00  0.00    -0.256 C  
HETATM    8  N   UNL     1      -9.625  10.701  68.595  1.00  0.00    -0.172 NA 
HETATM    9  C   UNL     1      -9.129  10.063  69.830  1.00  0.00    -0.193 C  
HETATM   10  C   UNL     1      -9.945   8.821  70.259  1.00  0.00    -0.186 C  
BRANCH   8  11
HETATM   11  C   UNL     1      -9.312   9.875  67.409  1.00  0.00    -0.137 C  
BRANCH  11  12
HETATM   12  C   UNL     1      -7.831   9.485  67.438  1.00  0.00    -0.102 C  
BRANCH  12  13
HETATM   13  C   UNL     1      -7.468   8.133  67.959  1.00  0.00    -0.097 C  
HETATM   14  C   UNL     1      -7.332   6.953  67.288  1.00  0.00    -0.091 C  
HETATM   15  C   UNL     1      -6.978   5.745  68.155  1.00  0.00    -0.069 A  
HETATM   16  C   UNL     1      -6.565   5.859  69.505  1.00  0.00    -0.044 A  
HETATM   17  C   UNL     1      -6.286   4.748  70.311  1.00  0.00    -0.022 A  
HETATM   18  C   UNL     1      -6.373   3.477  69.783  1.00  0.00    -0.028 A  
HETATM   19  C   UNL     1      -6.744   3.326  68.454  1.00  0.00    -0.045 A  
HETATM   20  C   UNL     1      -7.052   4.440  67.641  1.00  0.00    -0.064 A  
HETATM   21  S   UNL     1      -7.532   4.012  65.992  1.00  0.00    -0.089 SA 
HETATM   22  C   UNL     1      -7.717   5.569  65.169  1.00  0.00    -0.091 A  
HETATM   23  C   UNL     1      -7.600   6.831  65.779  1.00  0.00    -0.088 A  
HETATM   24  C   UNL     1      -7.772   7.929  64.899  1.00  0.00    -0.112 A  
HETATM   25  C   UNL     1      -8.121   7.798  63.550  1.00  0.00    -0.054 A  
HETATM   26  C   UNL     1      -8.246   6.552  62.985  1.00  0.00     0.022 A  
HETATM   27 CL   UNL     1      -8.419   9.207  62.602  1.00  0.00    -0.198 Cl 
HETATM   28  C   UNL     1      -8.025   5.444  63.788  1.00  0.00    -0.107 A  
ENDBRANCH  12  13
ENDBRANCH  11  12
ENDBRANCH   8  11
ENDBRANCH   4   5
ENDBRANCH   2   4
TORSDOF 5
ENDMDL
MODEL      193
REMARK 921   NORMALIZED FREE ENERGY PREDICTED BY IDOCK:   -1.80 KCAL/MOL
REMARK 922        TOTAL FREE ENERGY PREDICTED BY IDOCK:   -2.88 KCAL/MOL
REMARK 923 INTER-LIGAND FREE ENERGY PREDICTED BY IDOCK:   -3.56 KCAL/MOL
REMARK 924 INTRA-LIGAND FREE ENERGY PREDICTED BY IDOCK:    0.69 KCAL/MOL
REMARK 927      BINDING AFFINITY PREDICTED BY RF-SCORE:    0.00 PKD
ROOT
HETATM    1  O   UNL     1      -9.541   2.042  67.495  1.00  0.00    -0.400 OA 
HETATM    2  C   UNL     1     -10.090   2.363  68.771  1.00  0.00     0.997 C  
HETATM    3  H   UNL     1      -9.759   1.142  67.283  1.00  0.00     0.000 HD 
ENDROOT
BRANCH   2   4
HETATM    4  C   UNL     1      -9.740   3.813  69.112  1.00  0.00    -0.037 C  
BRANCH   4   5
HETATM    5  N   UNL     1      -9.278   4.640  67.979  1.00  0.00    -0.121 NA 
HETATM    6  C   UNL     1     -10.454   5.239  67.304  1.00  0.00    -0.173 C  
HETATM    7  C   UNL     1     -11.125   6.372  68.120  1.00  0.00    -0.263 C  
HETATM    8  N   UNL     1     -10.200   7.467  68.498  1.00  0.00    -0.192 NA 
HETATM    9  C   UNL     1      -9.036   6.874  69.184  1.00  0.00    -0.133 C  
HETATM   10  C   UNL     1      -8.362   5.731  68.388  1.00  0.00    -0.107 C  
BRANCH   8  11
HETATM   11  C   UNL     1      -9.773   8.291  67.347  1.00  0.00    -0.174 C  
BRANCH  11  12
HETATM   12  C   UNL     1     -10.918   9.222  66.936  1.00  0.00     0.140 C  
BRANCH  12  13
HETATM   13  C   UNL     1     -10.949  10.599  67.513  1.00  0.00    -0.371 C  
HETATM   14  C   UNL     1      -9.969  11.547  67.546  1.00  0.00    -0.207 C  
HETATM   15  C   UNL     1     -10.341  12.849  68.255  1.00  0.00    -0.248 A  
HETATM   16  C   UNL     1     -11.670  13.171  68.627  1.00  0.00    -0.362 A  
HETATM   17  C   UNL     1     -12.003  14.343  69.317  1.00  0.00    -0.362 A  
HETATM   18  C   UNL     1     -11.020  15.259  69.630  1.00  0.00    -0.291 A  
HETATM   19  C   UNL     1      -9.711  14.994  69.253  1.00  0.00    -0.192 A  
HETATM   20  C   UNL     1      -9.362  13.802  68.579  1.00  0.00    -0.144 A  
HETATM   21  S   UNL     1      -7.634  13.658  68.226  1.00  0.00    -0.142 SA 
HETATM   22  C   UNL     1      -7.501  12.173  67.271  1.00  0.00    -0.152 A  
HETATM   23  C   UNL     1      -8.560  11.292  66.986  1.00  0.00    -0.148 A  
HETATM   24  C   UNL     1      -8.201  10.181  66.182  1.00  0.00    -0.125 A  
HETATM   25  C   UNL     1      -6.891   9.909  65.770  1.00  0.00    -0.104 A  
HETATM   26  C   UNL     1      -5.873  10.778  66.080  1.00  0.00    -0.140 A  
HETATM   27 CL   UNL     1      -6.551   8.464  64.893  1.00  0.00    -0.067 Cl 
HETATM   28  C   UNL     1      -6.183  11.915  66.810  1.00  0.00    -0.045 A  
ENDBRANCH  12  13
ENDBRANCH  11  12
ENDBRANCH   8  11
ENDBRANCH   4   5
ENDBRANCH   2   4
TORSDOF 5
ENDMDL
MODEL      194
REMARK 921   NORMALIZED FREE ENERGY PREDICTED BY IDOCK:   -1.74 KCAL/MOL
REMARK 922        TOTAL FREE ENERGY PREDICTED BY IDOCK:   -2.80 KCAL/MOL
REMARK 923 INTER-LIGAND FREE ENERGY PREDICTED BY IDOCK:   -2.67 KCAL/MOL
REMARK 924 INTRA-LIGAND FREE ENERGY PREDICTED BY IDOCK:   -0.14 KCAL/MOL
REMARK 927      BINDING AFFINITY PREDICTED BY RF-SCORE:    0.00 PKD
ROOT
HETATM    1  O   UNL     1      -8.481   2.957  67.436  1.00  0.00    -0.085 OA 
HETATM    2  C   UNL     1      -8.595   2.951  66.015  1.00  0.00    -0.119 C  
HETATM    3  H   UNL     1      -8.594   2.070  67.758  1.00  0.00     0.000 HD 
ENDROOT
BRANCH   2   4
HETATM    4  C   UNL     1      -8.413   4.380  65.497  1.00  0.00    -0.116 C  
BRANCH   4   5
HETATM    5  N   UNL     1      -7.096   4.991  65.763  1.00  0.00    -0.066 NA 
HETATM    6  C   UNL     1      -6.895   6.135  64.841  1.00  0.00    -0.047 C  
HETATM    7  C   UNL     1      -7.764   7.369  65.189  1.00  0.00    -0.112 C  
HETATM    8  N   UNL     1      -7.585   7.856  66.578  1.00  0.00    -0.091 NA 
HETATM    9  C   UNL     1      -7.799   6.722  67.497  1.00  0.00    -0.111 C  
HETATM   10  C   UNL     1      -6.949   5.476  67.156  1.00  0.00    -0.065 C  
BRANCH   8  11
HETATM   11  C   UNL     1      -6.266   8.483  66.807  1.00  0.00    -0.055 C  
BRANCH  11  12
HETATM   12  C   UNL     1      -6.378   9.996  66.596  1.00  0.00    -0.070 C  
BRANCH  12  13
HETATM   13  C   UNL     1      -6.233  10.887  67.785  1.00  0.00    -0.051 C  
HETATM   14  C   UNL     1      -6.956  11.990  68.136  1.00  0.00    -0.079 C  
HETATM   15  C   UNL     1      -6.504  12.687  69.419  1.00  0.00    -0.099 A  
HETATM   16  C   UNL     1      -5.582  12.110  70.326  1.00  0.00    -0.152 A  
HETATM   17  C   UNL     1      -5.135  12.770  71.478  1.00  0.00    -0.144 A  
HETATM   18  C   UNL     1      -5.624  14.022  71.786  1.00  0.00    -0.231 A  
HETATM   19  C   UNL     1      -6.554  14.607  70.937  1.00  0.00     0.299 A  
HETATM   20  C   UNL     1      -6.992  13.959  69.760  1.00  0.00     0.139 A  
HETATM   21  S   UNL     1      -8.152  14.902  68.814  1.00  0.00    -0.169 SA 
HETATM   22  C   UNL     1      -8.632  13.817  67.499  1.00  0.00    -0.193 A  
HETATM   23  C   UNL     1      -8.090  12.542  67.257  1.00  0.00    -0.179 A  
HETATM   24  C   UNL     1      -8.658  11.860  66.151  1.00  0.00     0.052 A  
HETATM   25  C   UNL     1      -9.616  12.422  65.299  1.00  0.00     0.012 A  
HETATM   26  C   UNL     1     -10.114  13.678  65.549  1.00  0.00    -0.293 A  
HETATM   27 CL   UNL     1     -10.151  11.544  63.915  1.00  0.00    -0.347 Cl 
HETATM   28  C   UNL     1      -9.637  14.363  66.656  1.00  0.00    -0.295 A  
ENDBRANCH  12  13
ENDBRANCH  11  12
ENDBRANCH   8  11
ENDBRANCH   4   5
ENDBRANCH   2   4
TORSDOF 5
ENDMDL
MODEL      195
REMARK 921   NORMALIZED FREE ENERGY PREDICTED BY IDOCK:   -1.58 KCAL/MOL
REMARK 922        TOTAL FREE ENERGY PREDICTED BY IDOCK:   -2.60 KCAL/MOL
REMARK 923 INTER-LIGAND FREE ENERGY PREDICTED BY IDOCK:   -4.80 KCAL/MOL
REMARK 924 INTRA-LIGAND FREE ENERGY PREDICTED BY IDOCK:    2.21 KCAL/MOL
REMARK 927      BINDING AFFINITY PREDICTED BY RF-SCORE:    0.00 PKD
ROOT
HETATM    1  O   UNL     1     -12.078  14.496  72.566  1.00  0.00    -0.203 OA 
HETATM    2  C   UNL     1     -12.567  13.596  71.575  1.00  0.00    -0.295 C  
HETATM    3  H   UNL     1     -12.074  14.055  73.408  1.00  0.00     0.000 HD 
ENDROOT
BRANCH   2   4
HETATM    4  C   UNL     1     -12.574  14.306  70.219  1.00  0.00    -0.319 C  
BRANCH   4   5
HETATM    5  N   UNL     1     -11.311  14.236  69.457  1.00  0.00    -0.265 NA 
HETATM    6  C   UNL     1     -11.433  13.196  68.408  1.00  0.00    -0.315 C  
HETATM    7  C   UNL     1     -12.354  13.607  67.233  1.00  0.00    -0.153 C  
HETATM    8  N   UNL     1     -11.962  14.880  66.581  1.00  0.00    -0.176 NA 
HETATM    9  C   UNL     1     -11.855  15.920  67.622  1.00  0.00     0.315 C  
HETATM   10  C   UNL     1     -10.949  15.520  68.810  1.00  0.00    -0.270 C  
BRANCH   8  11
HETATM   11  C   UNL     1     -10.706  14.773  65.808  1.00  0.00    -0.326 C  
BRANCH  11  12
HETATM   12  C   UNL     1      -9.525  15.164  66.700  1.00  0.00    -0.285 C  
BRANCH  12  13
HETATM   13  C   UNL     1      -8.758  14.074  67.373  1.00  0.00    -0.212 C  
HETATM   14  C   UNL     1      -7.800  14.158  68.341  1.00  0.00    -0.143 C  
HETATM   15  C   UNL     1      -7.196  12.824  68.781  1.00  0.00    -0.077 A  
HETATM   16  C   UNL     1      -7.749  11.571  68.419  1.00  0.00    -0.129 A  
HETATM   17  C   UNL     1      -7.168  10.350  68.785  1.00  0.00    -0.085 A  
HETATM   18  C   UNL     1      -6.028  10.337  69.562  1.00  0.00    -0.043 A  
HETATM   19  C   UNL     1      -5.476  11.546  69.964  1.00  0.00    -0.094 A  
HETATM   20  C   UNL     1      -6.041  12.782  69.578  1.00  0.00    -0.118 A  
HETATM   21  S   UNL     1      -5.154  14.192  70.175  1.00  0.00    -0.092 SA 
HETATM   22  C   UNL     1      -6.140  15.576  69.678  1.00  0.00    -0.150 A  
HETATM   23  C   UNL     1      -7.302  15.505  68.889  1.00  0.00    -0.150 A  
HETATM   24  C   UNL     1      -7.925  16.755  68.644  1.00  0.00    -0.246 A  
HETATM   25  C   UNL     1      -7.397  17.983  69.063  1.00  0.00    -0.190 A  
HETATM   26  C   UNL     1      -6.250  18.023  69.816  1.00  0.00    -0.164 A  
HETATM   27 CL   UNL     1      -8.180  19.450  68.607  1.00  0.00    -0.400 Cl 
HETATM   28  C   UNL     1      -5.636  16.822  70.138  1.00  0.00    -0.218 A  
ENDBRANCH  12  13
ENDBRANCH  11  12
ENDBRANCH   8  11
ENDBRANCH   4   5
ENDBRANCH   2   4
TORSDOF 5
ENDMDL
MODEL      196
REMARK 921   NORMALIZED FREE ENERGY PREDICTED BY IDOCK:   -1.56 KCAL/MOL
REMARK 922        TOTAL FREE ENERGY PREDICTED BY IDOCK:   -2.56 KCAL/MOL
REMARK 923 INTER-LIGAND FREE ENERGY PREDICTED BY IDOCK:   -2.28 KCAL/MOL
REMARK 924 INTRA-LIGAND FREE ENERGY PREDICTED BY IDOCK:   -0.28 KCAL/MOL
REMARK 927      BINDING AFFINITY PREDICTED BY RF-SCORE:    0.00 PKD
ROOT
HETATM    1  O   UNL     1     -13.542  11.512  63.144  1.00  0.00    -0.214 OA 
HETATM    2  C   UNL     1     -12.392  12.352  63.201  1.00  0.00    -0.215 C  
HETATM    3  H   UNL     1     -14.311  12.051  63.002  1.00  0.00     0.000 HD 
ENDROOT
BRANCH   2   4
HETATM    4  C   UNL     1     -11.153  11.484  63.431  1.00  0.00    -0.282 C  
BRANCH   4   5
HETATM    5  N   UNL     1     -10.998  10.944  64.797  1.00  0.00    -0.091 NA 
HETATM    6  C   UNL     1      -9.729  10.180  64.876  1.00  0.00    -0.324 C  
HETATM    7  C   UNL     1      -8.466  11.076  64.869  1.00  0.00     0.112 C  
HETATM    8  N   UNL     1      -8.455  12.105  65.936  1.00  0.00     0.342 NA 
HETATM    9  C   UNL     1      -9.710  12.876  65.849  1.00  0.00    -0.184 C  
HETATM   10  C   UNL     1     -10.981  11.996  65.841  1.00  0.00    -0.298 C  
BRANCH   8  11
HETATM   11  C   UNL     1      -8.275  11.537  67.289  1.00  0.00    -0.155 C  
BRANCH  11  12
HETATM   12  C   UNL     1      -7.365  12.456  68.109  1.00  0.00    -0.111 C  
BRANCH  12  13
HETATM   13  C   UNL     1      -7.270  13.892  67.712  1.00  0.00    -0.173 C  
HETATM   14  C   UNL     1      -6.738  14.947  68.394  1.00  0.00    -0.101 C  
HETATM   15  C   UNL     1      -6.842  16.300  67.691  1.00  0.00    -0.165 A  
HETATM   16  C   UNL     1      -7.221  16.436  66.333  1.00  0.00     0.004 A  
HETATM   17  C   UNL     1      -7.360  17.679  65.704  1.00  0.00     0.134 A  
HETATM   18  C   UNL     1      -7.089  18.837  66.403  1.00  0.00    -0.258 A  
HETATM   19  C   UNL     1      -6.683  18.743  67.727  1.00  0.00    -0.219 A  
HETATM   20  C   UNL     1      -6.565  17.494  68.377  1.00  0.00    -0.190 A  
HETATM   21  S   UNL     1      -6.067  17.613  70.071  1.00  0.00    -0.008 SA 
HETATM   22  C   UNL     1      -5.861  15.932  70.588  1.00  0.00     0.065 A  
HETATM   23  C   UNL     1      -6.151  14.799  69.808  1.00  0.00    -0.131 A  
HETATM   24  C   UNL     1      -5.881  13.561  70.443  1.00  0.00    -0.164 A  
HETATM   25  C   UNL     1      -5.447  13.445  71.769  1.00  0.00    -0.097 A  
HETATM   26  C   UNL     1      -5.189  14.569  72.514  1.00  0.00    -0.183 A  
HETATM   27 CL   UNL     1      -5.262  11.883  72.476  1.00  0.00     0.370 Cl 
HETATM   28  C   UNL     1      -5.377  15.807  71.918  1.00  0.00     0.252 A  
ENDBRANCH  12  13
ENDBRANCH  11  12
ENDBRANCH   8  11
ENDBRANCH   4   5
ENDBRANCH   2   4
TORSDOF 5
ENDMDL
MODEL      197
REMARK 921   NORMALIZED FREE ENERGY PREDICTED BY IDOCK:   -1.50 KCAL/MOL
REMARK 922        TOTAL FREE ENERGY PREDICTED BY IDOCK:   -2.49 KCAL/MOL
REMARK 923 INTER-LIGAND FREE ENERGY PREDICTED BY IDOCK:   -3.30 KCAL/MOL
REMARK 924 INTRA-LIGAND FREE ENERGY PREDICTED BY IDOCK:    0.81 KCAL/MOL
REMARK 927      BINDING AFFINITY PREDICTED BY RF-SCORE:    0.00 PKD
ROOT
HETATM    1  O   UNL     1      -8.995  15.342  66.379  1.00  0.00    -0.286 OA 
HETATM    2  C   UNL     1     -10.247  14.661  66.371  1.00  0.00    -0.289 C  
HETATM    3  H   UNL     1      -9.041  16.080  65.783  1.00  0.00     0.000 HD 
ENDROOT
BRANCH   2   4
HETATM    4  C   UNL     1     -10.172  13.471  67.331  1.00  0.00    -0.237 C  
BRANCH   4   5
HETATM    5  N   UNL     1      -9.285  12.368  66.909  1.00  0.00    -0.203 NA 
HETATM    6  C   UNL     1      -7.873  12.801  67.045  1.00  0.00    -0.014 C  
HETATM    7  C   UNL     1      -7.394  12.895  68.514  1.00  0.00    -0.115 C  
HETATM    8  N   UNL     1      -7.570  11.640  69.284  1.00  0.00     0.044 NA 
HETATM    9  C   UNL     1      -8.978  11.216  69.163  1.00  0.00     0.074 C  
HETATM   10  C   UNL     1      -9.478  11.130  67.702  1.00  0.00    -0.166 C  
BRANCH   8  11
HETATM   11  C   UNL     1      -6.653  10.562  68.855  1.00  0.00    -0.054 C  
BRANCH  11  12
HETATM   12  C   UNL     1      -7.419   9.237  68.797  1.00  0.00    -0.076 C  
BRANCH  12  13
HETATM   13  C   UNL     1      -7.644   8.610  67.460  1.00  0.00    -0.094 C  
HETATM   14  C   UNL     1      -8.194   7.400  67.151  1.00  0.00    -0.118 C  
HETATM   15  C   UNL     1      -8.238   7.064  65.661  1.00  0.00    -0.134 A  
HETATM   16  C   UNL     1      -7.978   8.018  64.647  1.00  0.00    -0.151 A  
HETATM   17  C   UNL     1      -7.974   7.697  63.284  1.00  0.00    -0.102 A  
HETATM   18  C   UNL     1      -8.270   6.411  62.880  1.00  0.00    -0.012 A  
HETATM   19  C   UNL     1      -8.563   5.456  63.844  1.00  0.00    -0.013 A  
HETATM   20  C   UNL     1      -8.544   5.765  65.222  1.00  0.00    -0.129 A  
HETATM   21  S   UNL     1      -8.915   4.389  66.270  1.00  0.00    -0.126 SA 
HETATM   22  C   UNL     1      -8.963   5.076  67.901  1.00  0.00    -0.108 A  
HETATM   23  C   UNL     1      -8.656   6.409  68.231  1.00  0.00    -0.114 A  
HETATM   24  C   UNL     1      -8.790   6.720  69.608  1.00  0.00    -0.144 A  
HETATM   25  C   UNL     1      -9.110   5.777  70.592  1.00  0.00    -0.151 A  
HETATM   26  C   UNL     1      -9.387   4.478  70.242  1.00  0.00    -0.218 A  
HETATM   27 CL   UNL     1      -9.130   6.244  72.251  1.00  0.00    -0.141 Cl 
HETATM   28  C   UNL     1      -9.332   4.135  68.899  1.00  0.00    -0.228 A  
ENDBRANCH  12  13
ENDBRANCH  11  12
ENDBRANCH   8  11
ENDBRANCH   4   5
ENDBRANCH   2   4
TORSDOF 5
ENDMDL
MODEL      198
REMARK 921   NORMALIZED FREE ENERGY PREDICTED BY IDOCK:   -1.15 KCAL/MOL
REMARK 922        TOTAL FREE ENERGY PREDICTED BY IDOCK:   -2.04 KCAL/MOL
REMARK 923 INTER-LIGAND FREE ENERGY PREDICTED BY IDOCK:   -3.35 KCAL/MOL
REMARK 924 INTRA-LIGAND FREE ENERGY PREDICTED BY IDOCK:    1.31 KCAL/MOL
REMARK 927      BINDING AFFINITY PREDICTED BY RF-SCORE:    0.00 PKD
ROOT
HETATM    1  O   UNL     1      -9.058   8.914  63.750  1.00  0.00    -0.394 OA 
HETATM    2  C   UNL     1      -9.223   9.804  64.852  1.00  0.00    -0.257 C  
HETATM    3  H   UNL     1      -8.564   9.355  63.069  1.00  0.00     0.000 HD 
ENDROOT
BRANCH   2   4
HETATM    4  C   UNL     1     -10.020   9.094  65.949  1.00  0.00    -0.162 C  
BRANCH   4   5
HETATM    5  N   UNL     1      -9.214   8.474  67.021  1.00  0.00    -0.146 NA 
HETATM    6  C   UNL     1     -10.077   8.242  68.205  1.00  0.00    -0.200 C  
HETATM    7  C   UNL     1     -11.087   7.084  68.016  1.00  0.00    -0.036 C  
HETATM    8  N   UNL     1     -10.458   5.794  67.642  1.00  0.00    -0.222 NA 
HETATM    9  C   UNL     1      -9.611   6.020  66.455  1.00  0.00    -0.137 C  
HETATM   10  C   UNL     1      -8.606   7.183  66.621  1.00  0.00    -0.124 C  
BRANCH   8  11
HETATM   11  C   UNL     1      -9.678   5.188  68.741  1.00  0.00    -0.154 C  
BRANCH  11  12
HETATM   12  C   UNL     1      -9.808   6.055  69.996  1.00  0.00    -0.215 C  
BRANCH  12  13
HETATM   13  C   UNL     1      -8.770   7.100  70.243  1.00  0.00    -0.144 C  
HETATM   14  C   UNL     1      -7.752   7.113  71.151  1.00  0.00    -0.090 C  
HETATM   15  C   UNL     1      -6.889   8.375  71.148  1.00  0.00    -0.058 A  
HETATM   16  C   UNL     1      -6.955   9.351  70.123  1.00  0.00    -0.077 A  
HETATM   17  C   UNL     1      -6.196  10.528  70.145  1.00  0.00    -0.117 A  
HETATM   18  C   UNL     1      -5.311  10.755  71.179  1.00  0.00    -0.078 A  
HETATM   19  C   UNL     1      -5.194   9.806  72.184  1.00  0.00    -0.051 A  
HETATM   20  C   UNL     1      -5.975   8.628  72.183  1.00  0.00    -0.070 A  
HETATM   21  S   UNL     1      -5.687   7.577  73.578  1.00  0.00    -0.049 SA 
HETATM   22  C   UNL     1      -6.667   6.138  73.255  1.00  0.00    -0.075 A  
HETATM   23  C   UNL     1      -7.542   5.977  72.166  1.00  0.00    -0.097 A  
HETATM   24  C   UNL     1      -8.199   4.722  72.118  1.00  0.00    -0.111 A  
HETATM   25  C   UNL     1      -8.075   3.741  73.109  1.00  0.00    -0.087 A  
HETATM   26  C   UNL     1      -7.226   3.932  74.172  1.00  0.00    -0.061 A  
HETATM   27 CL   UNL     1      -9.013   2.297  73.006  1.00  0.00    -0.074 Cl 
HETATM   28  C   UNL     1      -6.511   5.119  74.232  1.00  0.00    -0.065 A  
ENDBRANCH  12  13
ENDBRANCH  11  12
ENDBRANCH   8  11
ENDBRANCH   4   5
ENDBRANCH   2   4
TORSDOF 5
ENDMDL
MODEL      199
REMARK 921   NORMALIZED FREE ENERGY PREDICTED BY IDOCK:   -0.85 KCAL/MOL
REMARK 922        TOTAL FREE ENERGY PREDICTED BY IDOCK:   -1.65 KCAL/MOL
REMARK 923 INTER-LIGAND FREE ENERGY PREDICTED BY IDOCK:   -4.73 KCAL/MOL
REMARK 924 INTRA-LIGAND FREE ENERGY PREDICTED BY IDOCK:    3.09 KCAL/MOL
REMARK 927      BINDING AFFINITY PREDICTED BY RF-SCORE:    0.00 PKD
ROOT
HETATM    1  O   UNL     1      -9.355   9.439  63.716  1.00  0.00    -0.408 OA 
HETATM    2  C   UNL     1      -8.583   8.243  63.646  1.00  0.00     0.186 C  
HETATM    3  H   UNL     1     -10.270   9.210  63.833  1.00  0.00     0.000 HD 
ENDROOT
BRANCH   2   4
HETATM    4  C   UNL     1      -7.110   8.613  63.456  1.00  0.00    -0.089 C  
BRANCH   4   5
HETATM    5  N   UNL     1      -6.462   9.261  64.615  1.00  0.00    -0.075 NA 
HETATM    6  C   UNL     1      -7.167  10.529  64.919  1.00  0.00     0.027 C  
HETATM    7  C   UNL     1      -8.563  10.323  65.558  1.00  0.00    -0.164 C  
HETATM    8  N   UNL     1      -8.543   9.498  66.789  1.00  0.00    -0.127 NA 
HETATM    9  C   UNL     1      -7.855   8.228  66.484  1.00  0.00    -0.093 C  
HETATM   10  C   UNL     1      -6.465   8.415  65.832  1.00  0.00    -0.053 C  
BRANCH   8  11
HETATM   11  C   UNL     1      -7.909  10.181  67.937  1.00  0.00    -0.101 C  
BRANCH  11  12
HETATM   12  C   UNL     1      -8.641  11.498  68.211  1.00  0.00    -0.161 C  
BRANCH  12  13
HETATM   13  C   UNL     1      -9.831  11.469  69.112  1.00  0.00     0.085 C  
HETATM   14  C   UNL     1     -10.699  12.471  69.433  1.00  0.00     0.124 C  
HETATM   15  C   UNL     1     -11.798  12.092  70.426  1.00  0.00    -0.302 A  
HETATM   16  C   UNL     1     -12.072  10.752  70.797  1.00  0.00    -0.473 A  
HETATM   17  C   UNL     1     -13.048  10.410  71.741  1.00  0.00    -0.567 A  
HETATM   18  C   UNL     1     -13.816  11.396  72.324  1.00  0.00     0.353 A  
HETATM   19  C   UNL     1     -13.599  12.719  71.961  1.00  0.00    -0.460 A  
HETATM   20  C   UNL     1     -12.599  13.075  71.029  1.00  0.00    -0.299 A  
HETATM   21  S   UNL     1     -12.476  14.817  70.742  1.00  0.00    -0.365 SA 
HETATM   22  C   UNL     1     -11.271  14.967  69.453  1.00  0.00    -0.283 A  
HETATM   23  C   UNL     1     -10.533  13.904  68.901  1.00  0.00    -0.199 A  
HETATM   24  C   UNL     1      -9.643  14.281  67.864  1.00  0.00    -0.221 A  
HETATM   25  C   UNL     1      -9.429  15.606  67.466  1.00  0.00    -0.214 A  
HETATM   26  C   UNL     1     -10.150  16.626  68.036  1.00  0.00    -0.262 A  
HETATM   27 CL   UNL     1      -8.235  15.958  66.273  1.00  0.00    -0.264 Cl 
HETATM   28  C   UNL     1     -11.082  16.304  69.011  1.00  0.00    -0.331 A  
ENDBRANCH  12  13
ENDBRANCH  11  12
ENDBRANCH   8  11
ENDBRANCH   4   5
ENDBRANCH   2   4
TORSDOF 5
ENDMDL
MODEL      200
REMARK 921   NORMALIZED FREE ENERGY PREDICTED BY IDOCK:   -0.76 KCAL/MOL
REMARK 922        TOTAL FREE ENERGY PREDICTED BY IDOCK:   -1.54 KCAL/MOL
REMARK 923 INTER-LIGAND FREE ENERGY PREDICTED BY IDOCK:   -2.49 KCAL/MOL
REMARK 924 INTRA-LIGAND FREE ENERGY PREDICTED BY IDOCK:    0.95 KCAL/MOL
REMARK 927      BINDING AFFINITY PREDICTED BY RF-SCORE:    0.00 PKD
ROOT
HETATM    1  O   UNL     1      -9.441   9.698  63.038  1.00  0.00    -0.524 OA 
HETATM    2  C   UNL     1      -9.532  10.687  64.060  1.00  0.00    -0.285 C  
HETATM    3  H   UNL     1      -9.065  10.093  62.259  1.00  0.00     0.000 HD 
ENDROOT
BRANCH   2   4
HETATM    4  C   UNL     1     -10.138  10.052  65.314  1.00  0.00    -0.229 C  
BRANCH   4   5
HETATM    5  N   UNL     1      -9.181   9.740  66.395  1.00  0.00    -0.154 NA 
HETATM    6  C   UNL     1      -9.923   9.583  67.669  1.00  0.00    -0.180 C  
HETATM    7  C   UNL     1     -10.749   8.276  67.747  1.00  0.00    -0.095 C  
HETATM    8  N   UNL     1      -9.951   7.047  67.522  1.00  0.00    -0.145 NA 
HETATM    9  C   UNL     1      -9.224   7.195  66.246  1.00  0.00    -0.127 C  
HETATM   10  C   UNL     1      -8.404   8.502  66.146  1.00  0.00    -0.119 C  
BRANCH   8  11
HETATM   11  C   UNL     1      -9.020   6.748  68.630  1.00  0.00    -0.125 C  
BRANCH  11  12
HETATM   12  C   UNL     1      -9.253   7.740  69.773  1.00  0.00    -0.150 C  
BRANCH  12  13
HETATM   13  C   UNL     1      -8.344   8.919  69.880  1.00  0.00    -0.128 C  
HETATM   14  C   UNL     1      -7.348   9.167  70.779  1.00  0.00    -0.120 C  
HETATM   15  C   UNL     1      -6.633  10.508  70.610  1.00  0.00     0.058 A  
HETATM   16  C   UNL     1      -6.793  11.328  69.466  1.00  0.00    -0.115 A  
HETATM   17  C   UNL     1      -6.173  12.577  69.333  1.00  0.00    -0.113 A  
HETATM   18  C   UNL     1      -5.335  13.037  70.328  1.00  0.00    -0.119 A  
HETATM   19  C   UNL     1      -5.128  12.246  71.450  1.00  0.00    -0.105 A  
HETATM   20  C   UNL     1      -5.770  10.997  71.604  1.00  0.00     0.460 A  
HETATM   21  S   UNL     1      -5.386  10.177  73.124  1.00  0.00     0.401 SA 
HETATM   22  C   UNL     1      -6.192   8.606  72.993  1.00  0.00    -0.070 A  
HETATM   23  C   UNL     1      -7.027   8.205  71.934  1.00  0.00    -0.081 A  
HETATM   24  C   UNL     1      -7.537   6.888  72.052  1.00  0.00    -0.093 A  
HETATM   25  C   UNL     1      -7.318   6.065  73.164  1.00  0.00    -0.093 A  
HETATM   26  C   UNL     1      -6.513   6.490  74.192  1.00  0.00    -0.069 A  
HETATM   27 CL   UNL     1      -8.084   4.523  73.251  1.00  0.00    -0.095 Cl 
HETATM   28  C   UNL     1      -5.937   7.748  74.096  1.00  0.00    -0.074 A  
ENDBRANCH  12  13
ENDBRANCH  11  12
ENDBRANCH   8  11
ENDBRANCH   4   5
ENDBRANCH   2   4
TORSDOF 5
ENDMDL
MODEL      201
REMARK 921   NORMALIZED FREE ENERGY PREDICTED BY IDOCK:   -0.49 KCAL/MOL
REMARK 922        TOTAL FREE ENERGY PREDICTED BY IDOCK:   -1.18 KCAL/MOL
REMARK 923 INTER-LIGAND FREE ENERGY PREDICTED BY IDOCK:   -1.19 KCAL/MOL
REMARK 924 INTRA-LIGAND FREE ENERGY PREDICTED BY IDOCK:    0.01 KCAL/MOL
REMARK 927      BINDING AFFINITY PREDICTED BY RF-SCORE:    0.00 PKD
ROOT
HETATM    1  O   UNL     1     -14.266  11.304  64.153  1.00  0.00     1.474 OA 
HETATM    2  C   UNL     1     -13.757  12.021  63.031  1.00  0.00     2.170 C  
HETATM    3  H   UNL     1     -15.079  10.880  63.906  1.00  0.00     0.000 HD 
ENDROOT
BRANCH   2   4
HETATM    4  C   UNL     1     -12.446  12.703  63.430  1.00  0.00    -0.372 C  
BRANCH   4   5
HETATM    5  N   UNL     1     -11.894  12.304  64.741  1.00  0.00    -0.373 NA 
HETATM    6  C   UNL     1     -10.416  12.409  64.698  1.00  0.00    -0.309 C  
HETATM    7  C   UNL     1      -9.900  13.869  64.698  1.00  0.00     0.270 C  
HETATM    8  N   UNL     1     -10.389  14.679  65.839  1.00  0.00    -0.303 NA 
HETATM    9  C   UNL     1     -11.861  14.588  65.874  1.00  0.00    -0.331 C  
HETATM   10  C   UNL     1     -12.395  13.136  65.861  1.00  0.00    -0.398 C  
BRANCH   8  11
HETATM   11  C   UNL     1      -9.802  14.272  67.134  1.00  0.00    -0.252 C  
BRANCH  11  12
HETATM   12  C   UNL     1     -10.102  15.343  68.187  1.00  0.00    -0.222 C  
BRANCH  12  13
HETATM   13  C   UNL     1      -9.332  16.621  68.131  1.00  0.00    -0.224 C  
HETATM   14  C   UNL     1      -8.048  16.877  68.514  1.00  0.00    -0.244 C  
HETATM   15  C   UNL     1      -7.592  18.326  68.344  1.00  0.00    -0.302 A  
HETATM   16  C   UNL     1      -8.331  19.286  67.610  1.00  0.00    -0.325 A  
HETATM   17  C   UNL     1      -7.935  20.625  67.494  1.00  0.00    -0.274 A  
HETATM   18  C   UNL     1      -6.758  21.045  68.077  1.00  0.00    -0.226 A  
HETATM   19  C   UNL     1      -5.989  20.125  68.777  1.00  0.00    -0.319 A  
HETATM   20  C   UNL     1      -6.395  18.779  68.921  1.00  0.00    -0.250 A  
HETATM   21  S   UNL     1      -5.280  17.795  69.879  1.00  0.00    -0.224 SA 
HETATM   22  C   UNL     1      -5.943  16.156  69.780  1.00  0.00    -0.177 A  
HETATM   23  C   UNL     1      -7.152  15.804  69.153  1.00  0.00    -0.176 A  
HETATM   24  C   UNL     1      -7.455  14.420  69.191  1.00  0.00    -0.094 A  
HETATM   25  C   UNL     1      -6.679  13.472  69.870  1.00  0.00     0.147 A  
HETATM   26  C   UNL     1      -5.512  13.847  70.489  1.00  0.00    -0.132 A  
HETATM   27 CL   UNL     1      -7.205  11.832  69.948  1.00  0.00     0.393 Cl 
HETATM   28  C   UNL     1      -5.137  15.181  70.426  1.00  0.00    -0.117 A  
ENDBRANCH  12  13
ENDBRANCH  11  12
ENDBRANCH   8  11
ENDBRANCH   4   5
ENDBRANCH   2   4
TORSDOF 5
ENDMDL
MODEL      202
REMARK 921   NORMALIZED FREE ENERGY PREDICTED BY IDOCK:   -0.24 KCAL/MOL
REMARK 922        TOTAL FREE ENERGY PREDICTED BY IDOCK:   -0.86 KCAL/MOL
REMARK 923 INTER-LIGAND FREE ENERGY PREDICTED BY IDOCK:   -1.81 KCAL/MOL
REMARK 924 INTRA-LIGAND FREE ENERGY PREDICTED BY IDOCK:    0.95 KCAL/MOL
REMARK 927      BINDING AFFINITY PREDICTED BY RF-SCORE:    0.00 PKD
ROOT
HETATM    1  O   UNL     1      -9.120  10.640  65.829  1.00  0.00    -0.172 OA 
HETATM    2  C   UNL     1      -7.813  10.174  66.157  1.00  0.00    -0.116 C  
HETATM    3  H   UNL     1      -9.682   9.891  65.664  1.00  0.00     0.000 HD 
ENDROOT
BRANCH   2   4
HETATM    4  C   UNL     1      -6.908  11.379  66.422  1.00  0.00    -0.003 C  
BRANCH   4   5
HETATM    5  N   UNL     1      -6.517  11.583  67.832  1.00  0.00    -0.054 NA 
HETATM    6  C   UNL     1      -7.694  11.347  68.702  1.00  0.00    -0.137 C  
HETATM    7  C   UNL     1      -8.089   9.854  68.816  1.00  0.00    -0.102 C  
HETATM    8  N   UNL     1      -6.987   8.975  69.279  1.00  0.00    -0.056 NA 
HETATM    9  C   UNL     1      -5.820   9.198  68.404  1.00  0.00    -0.041 C  
HETATM   10  C   UNL     1      -5.420  10.686  68.268  1.00  0.00    -0.036 C  
BRANCH   8  11
HETATM   11  C   UNL     1      -6.633   9.186  70.698  1.00  0.00    -0.071 C  
BRANCH  11  12
HETATM   12  C   UNL     1      -6.939   7.913  71.493  1.00  0.00    -0.060 C  
BRANCH  12  13
HETATM   13  C   UNL     1      -6.717   6.595  70.826  1.00  0.00    -0.054 C  
HETATM   14  C   UNL     1      -7.554   5.523  70.725  1.00  0.00    -0.090 C  
HETATM   15  C   UNL     1      -6.979   4.311  69.991  1.00  0.00    -0.041 A  
HETATM   16  C   UNL     1      -5.777   4.362  69.243  1.00  0.00    -0.017 A  
HETATM   17  C   UNL     1      -5.228   3.240  68.610  1.00  0.00    -0.012 A  
HETATM   18  C   UNL     1      -5.884   2.027  68.670  1.00  0.00    -0.023 A  
HETATM   19  C   UNL     1      -7.082   1.946  69.367  1.00  0.00    -0.036 A  
HETATM   20  C   UNL     1      -7.629   3.067  70.030  1.00  0.00    -0.044 A  
HETATM   21  S   UNL     1      -9.142   2.726  70.882  1.00  0.00    -0.126 SA 
HETATM   22  C   UNL     1      -9.672   4.303  71.488  1.00  0.00    -0.174 A  
HETATM   23  C   UNL     1      -8.946   5.503  71.377  1.00  0.00    -0.150 A  
HETATM   24  C   UNL     1      -9.595   6.637  71.926  1.00  0.00    -0.152 A  
HETATM   25  C   UNL     1     -10.816   6.581  72.610  1.00  0.00    -0.247 A  
HETATM   26  C   UNL     1     -11.493   5.391  72.720  1.00  0.00    -0.333 A  
HETATM   27 CL   UNL     1     -11.455   8.006  73.339  1.00  0.00     0.287 Cl 
HETATM   28  C   UNL     1     -10.931   4.262  72.144  1.00  0.00     0.247 A  
ENDBRANCH  12  13
ENDBRANCH  11  12
ENDBRANCH   8  11
ENDBRANCH   4   5
ENDBRANCH   2   4
TORSDOF 5
ENDMDL
MODEL      203
REMARK 921   NORMALIZED FREE ENERGY PREDICTED BY IDOCK:   -0.23 KCAL/MOL
REMARK 922        TOTAL FREE ENERGY PREDICTED BY IDOCK:   -0.84 KCAL/MOL
REMARK 923 INTER-LIGAND FREE ENERGY PREDICTED BY IDOCK:   -1.63 KCAL/MOL
REMARK 924 INTRA-LIGAND FREE ENERGY PREDICTED BY IDOCK:    0.79 KCAL/MOL
REMARK 927      BINDING AFFINITY PREDICTED BY RF-SCORE:    0.00 PKD
ROOT
HETATM    1  O   UNL     1      -6.534  14.271  73.309  1.00  0.00     0.160 OA 
HETATM    2  C   UNL     1      -5.238  14.203  72.717  1.00  0.00    -0.238 C  
HETATM    3  H   UNL     1      -6.522  14.919  74.003  1.00  0.00     0.000 HD 
ENDROOT
BRANCH   2   4
HETATM    4  C   UNL     1      -5.257  13.159  71.598  1.00  0.00    -0.148 C  
BRANCH   4   5
HETATM    5  N   UNL     1      -5.134  13.694  70.227  1.00  0.00    -0.092 NA 
HETATM    6  C   UNL     1      -6.135  13.032  69.356  1.00  0.00    -0.108 C  
HETATM    7  C   UNL     1      -7.589  13.494  69.623  1.00  0.00     0.707 C  
HETATM    8  N   UNL     1      -7.781  14.960  69.518  1.00  0.00    -0.159 NA 
HETATM    9  C   UNL     1      -6.795  15.620  70.396  1.00  0.00     0.422 C  
HETATM   10  C   UNL     1      -5.340  15.160  70.152  1.00  0.00    -0.121 C  
BRANCH   8  11
HETATM   11  C   UNL     1      -7.675  15.463  68.132  1.00  0.00    -0.124 C  
BRANCH  11  12
HETATM   12  C   UNL     1      -8.636  14.679  67.232  1.00  0.00    -0.231 C  
BRANCH  12  13
HETATM   13  C   UNL     1      -8.288  13.268  66.889  1.00  0.00    -0.018 C  
HETATM   14  C   UNL     1      -8.843  12.440  65.958  1.00  0.00     0.201 C  
HETATM   15  C   UNL     1      -8.253  11.031  65.900  1.00  0.00    -0.100 A  
HETATM   16  C   UNL     1      -7.055  10.670  66.564  1.00  0.00    -0.133 A  
HETATM   17  C   UNL     1      -6.540   9.368  66.547  1.00  0.00    -0.067 A  
HETATM   18  C   UNL     1      -7.186   8.382  65.830  1.00  0.00    -0.072 A  
HETATM   19  C   UNL     1      -8.346   8.706  65.139  1.00  0.00    -0.178 A  
HETATM   20  C   UNL     1      -8.886  10.012  65.172  1.00  0.00    -0.180 A  
HETATM   21  S   UNL     1     -10.385  10.189  64.248  1.00  0.00     0.821 SA 
HETATM   22  C   UNL     1     -10.756  11.918  64.339  1.00  0.00    -0.323 A  
HETATM   23  C   UNL     1     -10.037  12.866  65.089  1.00  0.00    -0.241 A  
HETATM   24  C   UNL     1     -10.523  14.194  64.980  1.00  0.00    -0.447 A  
HETATM   25  C   UNL     1     -11.676  14.545  64.267  1.00  0.00    -0.295 A  
HETATM   26  C   UNL     1     -12.369  13.594  63.559  1.00  0.00    -0.265 A  
HETATM   27 CL   UNL     1     -12.239  16.174  64.301  1.00  0.00     0.204 Cl 
HETATM   28  C   UNL     1     -11.898  12.290  63.580  1.00  0.00    -0.610 A  
ENDBRANCH  12  13
ENDBRANCH  11  12
ENDBRANCH   8  11
ENDBRANCH   4   5
ENDBRANCH   2   4
TORSDOF 5
ENDMDL
MODEL      204
REMARK 921   NORMALIZED FREE ENERGY PREDICTED BY IDOCK:    0.03 KCAL/MOL
REMARK 922        TOTAL FREE ENERGY PREDICTED BY IDOCK:   -0.51 KCAL/MOL
REMARK 923 INTER-LIGAND FREE ENERGY PREDICTED BY IDOCK:   -4.20 KCAL/MOL
REMARK 924 INTRA-LIGAND FREE ENERGY PREDICTED BY IDOCK:    3.70 KCAL/MOL
REMARK 927      BINDING AFFINITY PREDICTED BY RF-SCORE:    0.00 PKD
ROOT
HETATM    1  O   UNL     1     -11.670   6.441  73.104  1.00  0.00    -0.434 OA 
HETATM    2  C   UNL     1     -10.260   6.228  73.122  1.00  0.00    -0.202 C  
HETATM    3  H   UNL     1     -11.886   7.133  73.719  1.00  0.00     0.000 HD 
ENDROOT
BRANCH   2   4
HETATM    4  C   UNL     1      -9.913   5.114  72.132  1.00  0.00    -0.187 C  
BRANCH   4   5
HETATM    5  N   UNL     1      -8.902   5.461  71.113  1.00  0.00    -0.135 NA 
HETATM    6  C   UNL     1      -8.219   4.224  70.665  1.00  0.00    -0.070 C  
HETATM    7  C   UNL     1      -9.103   3.318  69.772  1.00  0.00    -0.130 C  
HETATM    8  N   UNL     1      -9.649   4.004  68.577  1.00  0.00    -0.144 NA 
HETATM    9  C   UNL     1     -10.342   5.229  69.022  1.00  0.00    -0.176 C  
HETATM   10  C   UNL     1      -9.478   6.138  69.927  1.00  0.00    -0.152 C  
BRANCH   8  11
HETATM   11  C   UNL     1      -8.618   4.318  67.565  1.00  0.00    -0.104 C  
BRANCH  11  12
HETATM   12  C   UNL     1      -7.881   5.598  67.970  1.00  0.00    -0.097 C  
BRANCH  12  13
HETATM   13  C   UNL     1      -8.514   6.910  67.640  1.00  0.00    -0.122 C  
HETATM   14  C   UNL     1      -8.730   7.486  66.423  1.00  0.00    -0.158 C  
HETATM   15  C   UNL     1      -9.381   8.869  66.460  1.00  0.00    -0.252 A  
HETATM   16  C   UNL     1      -9.959   9.418  67.632  1.00  0.00    -0.238 A  
HETATM   17  C   UNL     1     -10.513  10.703  67.676  1.00  0.00    -0.267 A  
HETATM   18  C   UNL     1     -10.545  11.477  66.534  1.00  0.00    -0.301 A  
HETATM   19  C   UNL     1     -10.017  10.961  65.358  1.00  0.00    -0.319 A  
HETATM   20  C   UNL     1      -9.432   9.675  65.311  1.00  0.00    -0.275 A  
HETATM   21  S   UNL     1      -8.795   9.236  63.720  1.00  0.00    -0.030 SA 
HETATM   22  C   UNL     1      -8.263   7.557  63.906  1.00  0.00     0.048 A  
HETATM   23  C   UNL     1      -8.273   6.830  65.110  1.00  0.00    -0.114 A  
HETATM   24  C   UNL     1      -7.815   5.493  64.994  1.00  0.00    -0.099 A  
HETATM   25  C   UNL     1      -7.303   4.945  63.811  1.00  0.00    -0.051 A  
HETATM   26  C   UNL     1      -7.289   5.686  62.655  1.00  0.00    -0.049 A  
HETATM   27 CL   UNL     1      -6.666   3.344  63.816  1.00  0.00    -0.038 Cl 
HETATM   28  C   UNL     1      -7.786   6.980  62.700  1.00  0.00    -0.109 A  
ENDBRANCH  12  13
ENDBRANCH  11  12
ENDBRANCH   8  11
ENDBRANCH   4   5
ENDBRANCH   2   4
TORSDOF 5
ENDMDL
MODEL      205
REMARK 921   NORMALIZED FREE ENERGY PREDICTED BY IDOCK:    0.30 KCAL/MOL
REMARK 922        TOTAL FREE ENERGY PREDICTED BY IDOCK:   -0.16 KCAL/MOL
REMARK 923 INTER-LIGAND FREE ENERGY PREDICTED BY IDOCK:   -1.65 KCAL/MOL
REMARK 924 INTRA-LIGAND FREE ENERGY PREDICTED BY IDOCK:    1.49 KCAL/MOL
REMARK 927      BINDING AFFINITY PREDICTED BY RF-SCORE:    0.00 PKD
ROOT
HETATM    1  O   UNL     1      -6.650   1.524  69.960  1.00  0.00    -0.025 OA 
HETATM    2  C   UNL     1      -7.933   1.850  70.489  1.00  0.00    -0.041 C  
HETATM    3  H   UNL     1      -6.033   1.437  70.678  1.00  0.00     0.000 HD 
ENDROOT
BRANCH   2   4
HETATM    4  C   UNL     1      -8.926   1.991  69.334  1.00  0.00    -0.097 C  
BRANCH   4   5
HETATM    5  N   UNL     1      -9.027   3.340  68.742  1.00  0.00    -0.117 NA 
HETATM    6  C   UNL     1      -9.939   4.167  69.569  1.00  0.00     0.012 C  
HETATM    7  C   UNL     1      -9.329   4.588  70.929  1.00  0.00    -0.153 C  
HETATM    8  N   UNL     1      -8.035   5.303  70.810  1.00  0.00    -0.095 NA 
HETATM    9  C   UNL     1      -7.121   4.474  69.999  1.00  0.00    -0.049 C  
HETATM   10  C   UNL     1      -7.721   4.033  68.644  1.00  0.00    -0.058 C  
BRANCH   8  11
HETATM   11  C   UNL     1      -8.171   6.658  70.236  1.00  0.00    -0.126 C  
BRANCH  11  12
HETATM   12  C   UNL     1      -6.788   7.183  69.837  1.00  0.00    -0.056 C  
BRANCH  12  13
HETATM   13  C   UNL     1      -6.662   8.621  69.456  1.00  0.00    -0.040 C  
HETATM   14  C   UNL     1      -6.414   9.175  68.234  1.00  0.00    -0.055 C  
HETATM   15  C   UNL     1      -6.317  10.701  68.216  1.00  0.00    -0.054 A  
HETATM   16  C   UNL     1      -6.706  11.511  69.310  1.00  0.00    -0.118 A  
HETATM   17  C   UNL     1      -6.574  12.905  69.309  1.00  0.00    -0.085 A  
HETATM   18  C   UNL     1      -6.081  13.547  68.192  1.00  0.00    -0.115 A  
HETATM   19  C   UNL     1      -5.718  12.789  67.087  1.00  0.00     0.127 A  
HETATM   20  C   UNL     1      -5.824  11.380  67.090  1.00  0.00    -0.094 A  
HETATM   21  S   UNL     1      -5.276  10.618  65.590  1.00  0.00    -0.132 SA 
HETATM   22  C   UNL     1      -5.647   8.900  65.807  1.00  0.00    -0.049 A  
HETATM   23  C   UNL     1      -6.162   8.321  66.981  1.00  0.00    -0.055 A  
HETATM   24  C   UNL     1      -6.393   6.925  66.897  1.00  0.00    -0.045 A  
HETATM   25  C   UNL     1      -6.059   6.146  65.782  1.00  0.00    -0.033 A  
HETATM   26  C   UNL     1      -5.539   6.736  64.656  1.00  0.00    -0.031 A  
HETATM   27 CL   UNL     1      -6.278   4.437  65.835  1.00  0.00    -0.031 Cl 
HETATM   28  C   UNL     1      -5.353   8.111  64.663  1.00  0.00    -0.036 A  
ENDBRANCH  12  13
ENDBRANCH  11  12
ENDBRANCH   8  11
ENDBRANCH   4   5
ENDBRANCH   2   4
TORSDOF 5
ENDMDL
MODEL      206
REMARK 921   NORMALIZED FREE ENERGY PREDICTED BY IDOCK:    0.78 KCAL/MOL
REMARK 922        TOTAL FREE ENERGY PREDICTED BY IDOCK:    0.45 KCAL/MOL
REMARK 923 INTER-LIGAND FREE ENERGY PREDICTED BY IDOCK:   -2.10 KCAL/MOL
REMARK 924 INTRA-LIGAND FREE ENERGY PREDICTED BY IDOCK:    2.56 KCAL/MOL
REMARK 927      BINDING AFFINITY PREDICTED BY RF-SCORE:    0.00 PKD
ROOT
HETATM    1  O   UNL     1      -9.037  10.130  66.334  1.00  0.00    -0.148 OA 
HETATM    2  C   UNL     1      -8.744  10.966  67.451  1.00  0.00    -0.130 C  
HETATM    3  H   UNL     1      -8.275   9.596  66.140  1.00  0.00     0.000 HD 
ENDROOT
BRANCH   2   4
HETATM    4  C   UNL     1      -9.971  11.826  67.764  1.00  0.00    -0.190 C  
BRANCH   4   5
HETATM    5  N   UNL     1     -11.065  11.138  68.479  1.00  0.00    -0.222 NA 
HETATM    6  C   UNL     1     -11.562  10.017  67.645  1.00  0.00     0.805 C  
HETATM    7  C   UNL     1     -10.583   8.819  67.573  1.00  0.00    -0.228 C  
HETATM    8  N   UNL     1     -10.201   8.276  68.899  1.00  0.00    -0.207 NA 
HETATM    9  C   UNL     1      -9.693   9.388  69.725  1.00  0.00    -0.199 C  
HETATM   10  C   UNL     1     -10.652  10.599  69.796  1.00  0.00    -0.184 C  
BRANCH   8  11
HETATM   11  C   UNL     1     -11.310   7.574  69.580  1.00  0.00     0.089 C  
BRANCH  11  12
HETATM   12  C   UNL     1     -10.775   6.299  70.238  1.00  0.00    -0.339 C  
BRANCH  12  13
HETATM   13  C   UNL     1      -9.541   6.399  71.072  1.00  0.00    -0.188 C  
HETATM   14  C   UNL     1      -8.320   5.818  70.887  1.00  0.00    -0.125 C  
HETATM   15  C   UNL     1      -7.283   6.117  71.969  1.00  0.00    -0.092 A  
HETATM   16  C   UNL     1      -7.464   7.118  72.955  1.00  0.00    -0.080 A  
HETATM   17  C   UNL     1      -6.533   7.360  73.973  1.00  0.00    -0.077 A  
HETATM   18  C   UNL     1      -5.363   6.630  74.021  1.00  0.00    -0.046 A  
HETATM   19  C   UNL     1      -5.135   5.662  73.053  1.00  0.00    -0.018 A  
HETATM   20  C   UNL     1      -6.081   5.394  72.037  1.00  0.00    -0.034 A  
HETATM   21  S   UNL     1      -5.598   4.098  70.933  1.00  0.00    -0.013 SA 
HETATM   22  C   UNL     1      -6.870   4.072  69.702  1.00  0.00    -0.041 A  
HETATM   23  C   UNL     1      -8.035   4.861  69.719  1.00  0.00    -0.070 A  
HETATM   24  C   UNL     1      -8.892   4.669  68.605  1.00  0.00    -0.125 A  
HETATM   25  C   UNL     1      -8.667   3.716  67.605  1.00  0.00    -0.107 A  
HETATM   26  C   UNL     1      -7.529   2.947  67.624  1.00  0.00    -0.057 A  
HETATM   27 CL   UNL     1      -9.837   3.491  66.359  1.00  0.00    -0.039 Cl 
HETATM   28  C   UNL     1      -6.626   3.139  68.659  1.00  0.00    -0.040 A  
ENDBRANCH  12  13
ENDBRANCH  11  12
ENDBRANCH   8  11
ENDBRANCH   4   5
ENDBRANCH   2   4
TORSDOF 5
ENDMDL
MODEL      207
REMARK 921   NORMALIZED FREE ENERGY PREDICTED BY IDOCK:    1.17 KCAL/MOL
REMARK 922        TOTAL FREE ENERGY PREDICTED BY IDOCK:    0.97 KCAL/MOL
REMARK 923 INTER-LIGAND FREE ENERGY PREDICTED BY IDOCK:   -2.41 KCAL/MOL
REMARK 924 INTRA-LIGAND FREE ENERGY PREDICTED BY IDOCK:    3.38 KCAL/MOL
REMARK 927      BINDING AFFINITY PREDICTED BY RF-SCORE:    0.00 PKD
ROOT
HETATM    1  O   UNL     1     -11.629   7.148  72.782  1.00  0.00    -0.481 OA 
HETATM    2  C   UNL     1     -10.343   6.542  72.886  1.00  0.00    -0.210 C  
HETATM    3  H   UNL     1     -11.696   7.843  73.426  1.00  0.00     0.000 HD 
ENDROOT
BRANCH   2   4
HETATM    4  C   UNL     1     -10.235   5.423  71.848  1.00  0.00    -0.203 C  
BRANCH   4   5
HETATM    5  N   UNL     1      -8.926   5.302  71.175  1.00  0.00    -0.138 NA 
HETATM    6  C   UNL     1      -8.720   3.892  70.763  1.00  0.00    -0.073 C  
HETATM    7  C   UNL     1      -9.603   3.463  69.565  1.00  0.00    -0.081 C  
HETATM    8  N   UNL     1      -9.448   4.323  68.368  1.00  0.00    -0.153 NA 
HETATM    9  C   UNL     1      -9.668   5.725  68.773  1.00  0.00    -0.132 C  
HETATM   10  C   UNL     1      -8.805   6.166  69.977  1.00  0.00    -0.144 C  
BRANCH   8  11
HETATM   11  C   UNL     1      -8.138   4.163  67.703  1.00  0.00    -0.094 C  
BRANCH  11  12
HETATM   12  C   UNL     1      -7.149   5.182  68.277  1.00  0.00    -0.062 C  
BRANCH  12  13
HETATM   13  C   UNL     1      -6.970   6.477  67.554  1.00  0.00    -0.078 C  
HETATM   14  C   UNL     1      -6.716   6.704  66.234  1.00  0.00    -0.049 C  
HETATM   15  C   UNL     1      -6.558   8.173  65.842  1.00  0.00    -0.046 A  
HETATM   16  C   UNL     1      -6.900   9.242  66.705  1.00  0.00    -0.080 A  
HETATM   17  C   UNL     1      -6.713  10.587  66.362  1.00  0.00    -0.114 A  
HETATM   18  C   UNL     1      -6.208  10.915  65.120  1.00  0.00     0.161 A  
HETATM   19  C   UNL     1      -5.891   9.895  64.234  1.00  0.00    -0.113 A  
HETATM   20  C   UNL     1      -6.054   8.535  64.582  1.00  0.00    -0.065 A  
HETATM   21  S   UNL     1      -5.556   7.407  63.313  1.00  0.00    -0.045 SA 
HETATM   22  C   UNL     1      -5.993   5.812  63.946  1.00  0.00    -0.025 A  
HETATM   23  C   UNL     1      -6.516   5.560  65.227  1.00  0.00    -0.039 A  
HETATM   24  C   UNL     1      -6.804   4.197  65.488  1.00  0.00    -0.057 A  
HETATM   25  C   UNL     1      -6.516   3.155  64.597  1.00  0.00    -0.031 A  
HETATM   26  C   UNL     1      -5.988   3.430  63.359  1.00  0.00    -0.014 A  
HETATM   27 CL   UNL     1      -6.802   1.522  65.068  1.00  0.00    -0.030 Cl 
HETATM   28  C   UNL     1      -5.746   4.755  63.029  1.00  0.00    -0.017 A  
ENDBRANCH  12  13
ENDBRANCH  11  12
ENDBRANCH   8  11
ENDBRANCH   4   5
ENDBRANCH   2   4
TORSDOF 5
ENDMDL
MODEL      208
REMARK 921   NORMALIZED FREE ENERGY PREDICTED BY IDOCK:    1.88 KCAL/MOL
REMARK 922        TOTAL FREE ENERGY PREDICTED BY IDOCK:    1.87 KCAL/MOL
REMARK 923 INTER-LIGAND FREE ENERGY PREDICTED BY IDOCK:   -3.37 KCAL/MOL
REMARK 924 INTRA-LIGAND FREE ENERGY PREDICTED BY IDOCK:    5.25 KCAL/MOL
REMARK 927      BINDING AFFINITY PREDICTED BY RF-SCORE:    0.00 PKD
ROOT
HETATM    1  O   UNL     1     -12.019  11.431  66.886  1.00  0.00    -0.440 OA 
HETATM    2  C   UNL     1     -11.147  10.688  67.735  1.00  0.00    -0.321 C  
HETATM    3  H   UNL     1     -12.035  11.023  66.028  1.00  0.00     0.000 HD 
ENDROOT
BRANCH   2   4
HETATM    4  C   UNL     1     -11.121  11.345  69.117  1.00  0.00    -0.258 C  
BRANCH   4   5
HETATM    5  N   UNL     1     -11.239  12.818  69.124  1.00  0.00    -0.254 NA 
HETATM    6  C   UNL     1      -9.908  13.413  68.857  1.00  0.00     0.087 C  
HETATM    7  C   UNL     1      -9.443  13.255  67.388  1.00  0.00    -0.218 C  
HETATM    8  N   UNL     1     -10.401  13.797  66.394  1.00  0.00    -0.284 NA 
HETATM    9  C   UNL     1     -11.723  13.194  66.649  1.00  0.00    -0.375 C  
HETATM   10  C   UNL     1     -12.196  13.330  68.115  1.00  0.00    -0.061 C  
BRANCH   8  11
HETATM   11  C   UNL     1     -10.480  15.273  66.409  1.00  0.00    -0.303 C  
BRANCH  11  12
HETATM   12  C   UNL     1      -9.086  15.860  66.169  1.00  0.00    -0.385 C  
BRANCH  12  13
HETATM   13  C   UNL     1      -8.220  16.127  67.356  1.00  0.00    -0.185 C  
HETATM   14  C   UNL     1      -8.054  17.280  68.066  1.00  0.00    -0.221 C  
HETATM   15  C   UNL     1      -7.049  17.201  69.216  1.00  0.00    -0.162 A  
HETATM   16  C   UNL     1      -6.515  15.978  69.690  1.00  0.00    -0.190 A  
HETATM   17  C   UNL     1      -5.560  15.912  70.712  1.00  0.00    -0.009 A  
HETATM   18  C   UNL     1      -5.130  17.069  71.327  1.00  0.00    -0.045 A  
HETATM   19  C   UNL     1      -5.656  18.285  70.912  1.00  0.00    -0.060 A  
HETATM   20  C   UNL     1      -6.600  18.363  69.864  1.00  0.00     0.099 A  
HETATM   21  S   UNL     1      -7.107  20.014  69.479  1.00  0.00     0.010 SA 
HETATM   22  C   UNL     1      -8.373  19.813  68.257  1.00  0.00    -0.274 A  
HETATM   23  C   UNL     1      -8.763  18.589  67.684  1.00  0.00    -0.280 A  
HETATM   24  C   UNL     1      -9.817  18.690  66.741  1.00  0.00    -0.365 A  
HETATM   25  C   UNL     1     -10.378  19.904  66.327  1.00  0.00    -0.495 A  
HETATM   26  C   UNL     1      -9.964  21.086  66.891  1.00  0.00     0.251 A  
HETATM   27 CL   UNL     1     -11.575  19.915  65.087  1.00  0.00     1.161 Cl 
HETATM   28  C   UNL     1      -8.979  21.037  67.866  1.00  0.00     0.206 A  
ENDBRANCH  12  13
ENDBRANCH  11  12
ENDBRANCH   8  11
ENDBRANCH   4   5
ENDBRANCH   2   4
TORSDOF 5
ENDMDL
MODEL      209
REMARK 921   NORMALIZED FREE ENERGY PREDICTED BY IDOCK:    1.98 KCAL/MOL
REMARK 922        TOTAL FREE ENERGY PREDICTED BY IDOCK:    2.01 KCAL/MOL
REMARK 923 INTER-LIGAND FREE ENERGY PREDICTED BY IDOCK:    1.50 KCAL/MOL
REMARK 924 INTRA-LIGAND FREE ENERGY PREDICTED BY IDOCK:    0.50 KCAL/MOL
REMARK 927      BINDING AFFINITY PREDICTED BY RF-SCORE:    0.00 PKD
ROOT
HETATM    1  O   UNL     1     -10.952   3.111  70.415  1.00  0.00     2.858 OA 
HETATM    2  C   UNL     1     -10.376   3.585  71.630  1.00  0.00     0.209 C  
HETATM    3  H   UNL     1     -11.642   2.492  70.622  1.00  0.00     0.000 HD 
ENDROOT
BRANCH   2   4
HETATM    4  C   UNL     1      -9.263   4.582  71.296  1.00  0.00    -0.140 C  
BRANCH   4   5
HETATM    5  N   UNL     1      -8.251   4.106  70.332  1.00  0.00    -0.058 NA 
HETATM    6  C   UNL     1      -8.781   4.258  68.956  1.00  0.00    -0.086 C  
HETATM    7  C   UNL     1      -8.842   5.729  68.476  1.00  0.00    -0.110 C  
HETATM    8  N   UNL     1      -7.542   6.439  68.552  1.00  0.00    -0.095 NA 
HETATM    9  C   UNL     1      -7.020   6.301  69.925  1.00  0.00    -0.066 C  
HETATM   10  C   UNL     1      -6.966   4.839  70.426  1.00  0.00    -0.045 C  
BRANCH   8  11
HETATM   11  C   UNL     1      -6.558   5.957  67.560  1.00  0.00    -0.056 C  
BRANCH  11  12
HETATM   12  C   UNL     1      -5.469   7.016  67.369  1.00  0.00    -0.020 C  
BRANCH  12  13
HETATM   13  C   UNL     1      -5.590   8.297  68.127  1.00  0.00    -0.034 C  
HETATM   14  C   UNL     1      -6.286   9.427  67.814  1.00  0.00    -0.058 C  
HETATM   15  C   UNL     1      -6.157  10.574  68.816  1.00  0.00    -0.040 A  
HETATM   16  C   UNL     1      -5.581  10.414  70.100  1.00  0.00    -0.056 A  
HETATM   17  C   UNL     1      -5.423  11.476  71.000  1.00  0.00    -0.063 A  
HETATM   18  C   UNL     1      -5.871  12.736  70.661  1.00  0.00    -0.095 A  
HETATM   19  C   UNL     1      -6.471  12.925  69.424  1.00  0.00    -0.091 A  
HETATM   20  C   UNL     1      -6.612  11.865  68.500  1.00  0.00    -0.061 A  
HETATM   21  S   UNL     1      -7.374  12.340  66.976  1.00  0.00     0.019 SA 
HETATM   22  C   UNL     1      -7.554  10.823  66.081  1.00  0.00    -0.139 A  
HETATM   23  C   UNL     1      -7.075   9.569  66.502  1.00  0.00    -0.085 A  
HETATM   24  C   UNL     1      -7.364   8.501  65.615  1.00  0.00    -0.084 A  
HETATM   25  C   UNL     1      -7.991   8.666  64.375  1.00  0.00    -0.146 A  
HETATM   26  C   UNL     1      -8.431   9.906  63.981  1.00  0.00    -0.183 A  
HETATM   27 CL   UNL     1      -8.186   7.311  63.327  1.00  0.00    -0.000 Cl 
HETATM   28  C   UNL     1      -8.230  10.976  64.841  1.00  0.00     0.228 A  
ENDBRANCH  12  13
ENDBRANCH  11  12
ENDBRANCH   8  11
ENDBRANCH   4   5
ENDBRANCH   2   4
TORSDOF 5
ENDMDL
MODEL      210
REMARK 921   NORMALIZED FREE ENERGY PREDICTED BY IDOCK:    2.07 KCAL/MOL
REMARK 922        TOTAL FREE ENERGY PREDICTED BY IDOCK:    2.12 KCAL/MOL
REMARK 923 INTER-LIGAND FREE ENERGY PREDICTED BY IDOCK:   -0.52 KCAL/MOL
REMARK 924 INTRA-LIGAND FREE ENERGY PREDICTED BY IDOCK:    2.64 KCAL/MOL
REMARK 927      BINDING AFFINITY PREDICTED BY RF-SCORE:    0.00 PKD
ROOT
HETATM    1  O   UNL     1     -11.565  14.410  72.115  1.00  0.00    -0.166 OA 
HETATM    2  C   UNL     1     -11.748  13.773  70.852  1.00  0.00     0.099 C  
HETATM    3  H   UNL     1     -11.639  13.759  72.802  1.00  0.00     0.000 HD 
ENDROOT
BRANCH   2   4
HETATM    4  C   UNL     1     -11.629  14.822  69.745  1.00  0.00    -0.297 C  
BRANCH   4   5
HETATM    5  N   UNL     1     -10.422  14.721  68.899  1.00  0.00    -0.243 NA 
HETATM    6  C   UNL     1     -10.829  14.423  67.505  1.00  0.00    -0.282 C  
HETATM    7  C   UNL     1     -11.482  15.626  66.781  1.00  0.00     0.113 C  
HETATM    8  N   UNL     1     -10.641  16.847  66.767  1.00  0.00    -0.253 NA 
HETATM    9  C   UNL     1     -10.247  17.153  68.156  1.00  0.00    -0.332 C  
HETATM   10  C   UNL     1      -9.606  15.958  68.898  1.00  0.00    -0.230 C  
BRANCH   8  11
HETATM   11  C   UNL     1      -9.453  16.724  65.895  1.00  0.00    -0.150 C  
BRANCH  11  12
HETATM   12  C   UNL     1      -8.562  15.589  66.407  1.00  0.00    -0.292 C  
BRANCH  12  13
HETATM   13  C   UNL     1      -8.689  14.247  65.764  1.00  0.00     1.154 C  
HETATM   14  C   UNL     1      -8.176  13.046  66.156  1.00  0.00     1.097 C  
HETATM   15  C   UNL     1      -8.481  11.869  65.229  1.00  0.00     0.826 A  
HETATM   16  C   UNL     1      -9.432  11.941  64.182  1.00  0.00     0.048 A  
HETATM   17  C   UNL     1      -9.678  10.877  63.304  1.00  0.00    -0.398 A  
HETATM   18  C   UNL     1      -9.005   9.684  63.466  1.00  0.00    -0.247 A  
HETATM   19  C   UNL     1      -8.088   9.565  64.502  1.00  0.00    -0.142 A  
HETATM   20  C   UNL     1      -7.816  10.642  65.376  1.00  0.00    -0.070 A  
HETATM   21  S   UNL     1      -6.590  10.278  66.599  1.00  0.00    -0.083 SA 
HETATM   22  C   UNL     1      -6.552  11.720  67.626  1.00  0.00    -0.085 A  
HETATM   23  C   UNL     1      -7.281  12.901  67.398  1.00  0.00    -0.130 A  
HETATM   24  C   UNL     1      -7.093  13.907  68.378  1.00  0.00    -0.104 A  
HETATM   25  C   UNL     1      -6.193  13.797  69.445  1.00  0.00    -0.107 A  
HETATM   26  C   UNL     1      -5.480  12.638  69.632  1.00  0.00    -0.085 A  
HETATM   27 CL   UNL     1      -5.961  15.132  70.511  1.00  0.00    -0.118 Cl 
HETATM   28  C   UNL     1      -5.674  11.597  68.737  1.00  0.00    -0.046 A  
ENDBRANCH  12  13
ENDBRANCH  11  12
ENDBRANCH   8  11
ENDBRANCH   4   5
ENDBRANCH   2   4
TORSDOF 5
ENDMDL
MODEL      211
REMARK 921   NORMALIZED FREE ENERGY PREDICTED BY IDOCK:    3.02 KCAL/MOL
REMARK 922        TOTAL FREE ENERGY PREDICTED BY IDOCK:    3.35 KCAL/MOL
REMARK 923 INTER-LIGAND FREE ENERGY PREDICTED BY IDOCK:   -0.22 KCAL/MOL
REMARK 924 INTRA-LIGAND FREE ENERGY PREDICTED BY IDOCK:    3.56 KCAL/MOL
REMARK 927      BINDING AFFINITY PREDICTED BY RF-SCORE:    0.00 PKD
ROOT
HETATM    1  O   UNL     1      -9.057  14.603  66.821  1.00  0.00    -0.241 OA 
HETATM    2  C   UNL     1     -10.293  13.907  66.964  1.00  0.00    -0.267 C  
HETATM    3  H   UNL     1      -9.171  15.308  66.194  1.00  0.00     0.000 HD 
ENDROOT
BRANCH   2   4
HETATM    4  C   UNL     1     -10.110  12.772  67.974  1.00  0.00    -0.230 C  
BRANCH   4   5
HETATM    5  N   UNL     1      -8.994  11.846  67.695  1.00  0.00    -0.163 NA 
HETATM    6  C   UNL     1      -7.772  12.632  67.401  1.00  0.00    -0.161 C  
HETATM    7  C   UNL     1      -7.160  13.314  68.649  1.00  0.00    -0.103 C  
HETATM    8  N   UNL     1      -6.852  12.376  69.755  1.00  0.00     0.129 NA 
HETATM    9  C   UNL     1      -8.072  11.603  70.059  1.00  0.00     2.066 C  
HETATM   10  C   UNL     1      -8.704  10.926  68.821  1.00  0.00    -0.158 C  
BRANCH   8  11
HETATM   11  C   UNL     1      -5.717  11.478  69.456  1.00  0.00    -0.069 C  
BRANCH  11  12
HETATM   12  C   UNL     1      -6.225  10.037  69.343  1.00  0.00    -0.045 C  
BRANCH  12  13
HETATM   13  C   UNL     1      -6.641   9.540  67.998  1.00  0.00    -0.062 C  
HETATM   14  C   UNL     1      -6.782   8.258  67.553  1.00  0.00    -0.063 C  
HETATM   15  C   UNL     1      -7.198   8.115  66.089  1.00  0.00    -0.066 A  
HETATM   16  C   UNL     1      -7.660   9.204  65.310  1.00  0.00    -0.098 A  
HETATM   17  C   UNL     1      -7.997   9.081  63.956  1.00  0.00    -0.145 A  
HETATM   18  C   UNL     1      -7.922   7.850  63.339  1.00  0.00    -0.125 A  
HETATM   19  C   UNL     1      -7.505   6.752  64.079  1.00  0.00    -0.098 A  
HETATM   20  C   UNL     1      -7.138   6.873  65.438  1.00  0.00    -0.068 A  
HETATM   21  S   UNL     1      -6.608   5.353  66.174  1.00  0.00    -0.050 SA 
HETATM   22  C   UNL     1      -6.352   5.755  67.879  1.00  0.00    -0.041 A  
HETATM   23  C   UNL     1      -6.460   7.042  68.437  1.00  0.00    -0.040 A  
HETATM   24  C   UNL     1      -6.227   7.100  69.834  1.00  0.00    -0.027 A  
HETATM   25  C   UNL     1      -5.831   5.999  70.604  1.00  0.00    -0.022 A  
HETATM   26  C   UNL     1      -5.716   4.757  70.028  1.00  0.00    -0.013 A  
HETATM   27 CL   UNL     1      -5.462   6.211  72.274  1.00  0.00    -0.030 Cl 
HETATM   28  C   UNL     1      -5.995   4.634  68.675  1.00  0.00    -0.026 A  
ENDBRANCH  12  13
ENDBRANCH  11  12
ENDBRANCH   8  11
ENDBRANCH   4   5
ENDBRANCH   2   4
TORSDOF 5
ENDMDL
MODEL      212
REMARK 921   NORMALIZED FREE ENERGY PREDICTED BY IDOCK:    3.24 KCAL/MOL
REMARK 922        TOTAL FREE ENERGY PREDICTED BY IDOCK:    3.63 KCAL/MOL
REMARK 923 INTER-LIGAND FREE ENERGY PREDICTED BY IDOCK:   -2.45 KCAL/MOL
REMARK 924 INTRA-LIGAND FREE ENERGY PREDICTED BY IDOCK:    6.08 KCAL/MOL
REMARK 927      BINDING AFFINITY PREDICTED BY RF-SCORE:    0.00 PKD
ROOT
HETATM    1  O   UNL     1     -11.515  14.381  72.103  1.00  0.00    -0.089 OA 
HETATM    2  C   UNL     1     -11.852  13.641  70.932  1.00  0.00     0.003 C  
HETATM    3  H   UNL     1     -11.729  13.862  72.869  1.00  0.00     0.000 HD 
ENDROOT
BRANCH   2   4
HETATM    4  C   UNL     1     -11.506  14.477  69.698  1.00  0.00    -0.288 C  
BRANCH   4   5
HETATM    5  N   UNL     1     -10.531  13.869  68.770  1.00  0.00    -0.237 NA 
HETATM    6  C   UNL     1     -11.174  13.679  67.447  1.00  0.00    -0.302 C  
HETATM    7  C   UNL     1     -11.394  15.001  66.671  1.00  0.00    -0.289 C  
HETATM    8  N   UNL     1     -10.157  15.795  66.475  1.00  0.00    -0.269 NA 
HETATM    9  C   UNL     1      -9.525  15.998  67.793  1.00  0.00    -0.217 C  
HETATM   10  C   UNL     1      -9.310  14.689  68.588  1.00  0.00    -0.206 C  
BRANCH   8  11
HETATM   11  C   UNL     1      -9.212  15.172  65.524  1.00  0.00     0.269 C  
BRANCH  11  12
HETATM   12  C   UNL     1      -8.849  13.767  66.013  1.00  0.00     0.545 C  
BRANCH  12  13
HETATM   13  C   UNL     1      -8.019  13.643  67.248  1.00  0.00    -0.129 C  
HETATM   14  C   UNL     1      -7.182  12.636  67.632  1.00  0.00    -0.142 C  
HETATM   15  C   UNL     1      -6.509  12.828  68.991  1.00  0.00    -0.096 A  
HETATM   16  C   UNL     1      -6.530  14.057  69.695  1.00  0.00    -0.122 A  
HETATM   17  C   UNL     1      -5.952  14.219  70.961  1.00  0.00    -0.181 A  
HETATM   18  C   UNL     1      -5.295  13.161  71.555  1.00  0.00    -0.143 A  
HETATM   19  C   UNL     1      -5.225  11.950  70.881  1.00  0.00    -0.141 A  
HETATM   20  C   UNL     1      -5.827  11.771  69.615  1.00  0.00    -0.097 A  
HETATM   21  S   UNL     1      -5.642  10.139  68.958  1.00  0.00    -0.033 SA 
HETATM   22  C   UNL     1      -6.349  10.234  67.338  1.00  0.00    -0.059 A  
HETATM   23  C   UNL     1      -6.997  11.359  66.797  1.00  0.00    -0.128 A  
HETATM   24  C   UNL     1      -7.460  11.190  65.468  1.00  0.00     0.316 A  
HETATM   25  C   UNL     1      -7.376   9.984  64.762  1.00  0.00    -0.143 A  
HETATM   26  C   UNL     1      -6.754   8.895  65.322  1.00  0.00    -0.068 A  
HETATM   27 CL   UNL     1      -8.079   9.860  63.192  1.00  0.00    -0.142 Cl 
HETATM   28  C   UNL     1      -6.226   9.027  66.598  1.00  0.00    -0.061 A  
ENDBRANCH  12  13
ENDBRANCH  11  12
ENDBRANCH   8  11
ENDBRANCH   4   5
ENDBRANCH   2   4
TORSDOF 5
ENDMDL
MODEL      213
REMARK 921   NORMALIZED FREE ENERGY PREDICTED BY IDOCK:    3.51 KCAL/MOL
REMARK 922        TOTAL FREE ENERGY PREDICTED BY IDOCK:    3.99 KCAL/MOL
REMARK 923 INTER-LIGAND FREE ENERGY PREDICTED BY IDOCK:    1.22 KCAL/MOL
REMARK 924 INTRA-LIGAND FREE ENERGY PREDICTED BY IDOCK:    2.77 KCAL/MOL
REMARK 927      BINDING AFFINITY PREDICTED BY RF-SCORE:    0.00 PKD
ROOT
HETATM    1  O   UNL     1      -5.128  17.781  72.312  1.00  0.00    -0.266 OA 
HETATM    2  C   UNL     1      -5.640  16.860  71.353  1.00  0.00     0.519 C  
HETATM    3  H   UNL     1      -4.567  17.314  72.920  1.00  0.00     0.000 HD 
ENDROOT
BRANCH   2   4
HETATM    4  C   UNL     1      -6.543  17.613  70.373  1.00  0.00     1.009 C  
BRANCH   4   5
HETATM    5  N   UNL     1      -6.581  17.074  68.999  1.00  0.00    -0.204 NA 
HETATM    6  C   UNL     1      -6.651  15.594  69.059  1.00  0.00    -0.130 C  
HETATM    7  C   UNL     1      -8.028  15.059  69.523  1.00  0.00    -0.135 C  
HETATM    8  N   UNL     1      -9.166  15.544  68.706  1.00  0.00    -0.197 NA 
HETATM    9  C   UNL     1      -9.107  17.017  68.658  1.00  0.00    -0.271 C  
HETATM   10  C   UNL     1      -7.734  17.569  68.210  1.00  0.00    -0.247 C  
BRANCH   8  11
HETATM   11  C   UNL     1      -9.190  14.969  67.344  1.00  0.00    -0.195 C  
BRANCH  11  12
HETATM   12  C   UNL     1      -7.943  14.106  67.135  1.00  0.00    -0.100 C  
BRANCH  12  13
HETATM   13  C   UNL     1      -8.091  12.823  66.386  1.00  0.00     0.586 C  
HETATM   14  C   UNL     1      -8.937  12.508  65.364  1.00  0.00     0.661 C  
HETATM   15  C   UNL     1      -8.838  11.071  64.852  1.00  0.00    -0.066 A  
HETATM   16  C   UNL     1      -7.786  10.194  65.213  1.00  0.00    -0.144 A  
HETATM   17  C   UNL     1      -7.722   8.864  64.780  1.00  0.00    -0.111 A  
HETATM   18  C   UNL     1      -8.693   8.370  63.934  1.00  0.00     0.229 A  
HETATM   19  C   UNL     1      -9.723   9.209  63.531  1.00  0.00     1.661 A  
HETATM   20  C   UNL     1      -9.809  10.545  63.984  1.00  0.00    -0.324 A  
HETATM   21  S   UNL     1     -11.220  11.419  63.371  1.00  0.00     0.031 SA 
HETATM   22  C   UNL     1     -11.005  13.073  63.965  1.00  0.00    -0.389 A  
HETATM   23  C   UNL     1      -9.976  13.503  64.822  1.00  0.00    -0.156 A  
HETATM   24  C   UNL     1     -10.012  14.884  65.139  1.00  0.00    -0.277 A  
HETATM   25  C   UNL     1     -11.027  15.753  64.721  1.00  0.00    -0.393 A  
HETATM   26  C   UNL     1     -12.031  15.301  63.899  1.00  0.00     0.157 A  
HETATM   27 CL   UNL     1     -11.030  17.389  65.263  1.00  0.00    -0.069 Cl 
HETATM   28  C   UNL     1     -12.007  13.971  63.508  1.00  0.00     0.042 A  
ENDBRANCH  12  13
ENDBRANCH  11  12
ENDBRANCH   8  11
ENDBRANCH   4   5
ENDBRANCH   2   4
TORSDOF 5
ENDMDL
MODEL      214
REMARK 921   NORMALIZED FREE ENERGY PREDICTED BY IDOCK:    5.56 KCAL/MOL
REMARK 922        TOTAL FREE ENERGY PREDICTED BY IDOCK:    6.64 KCAL/MOL
REMARK 923 INTER-LIGAND FREE ENERGY PREDICTED BY IDOCK:    3.30 KCAL/MOL
REMARK 924 INTRA-LIGAND FREE ENERGY PREDICTED BY IDOCK:    3.34 KCAL/MOL
REMARK 927      BINDING AFFINITY PREDICTED BY RF-SCORE:    0.00 PKD
ROOT
HETATM    1  O   UNL     1      -9.781  19.630  68.448  1.00  0.00    -0.361 OA 
HETATM    2  C   UNL     1      -9.907  18.885  69.657  1.00  0.00     0.328 C  
HETATM    3  H   UNL     1      -8.960  20.107  68.463  1.00  0.00     0.000 HD 
ENDROOT
BRANCH   2   4
HETATM    4  C   UNL     1     -11.230  18.116  69.631  1.00  0.00     2.441 C  
BRANCH   4   5
HETATM    5  N   UNL     1     -11.126  16.681  69.300  1.00  0.00    -0.259 NA 
HETATM    6  C   UNL     1     -10.541  15.957  70.454  1.00  0.00    -0.180 C  
HETATM    7  C   UNL     1     -11.511  15.817  71.652  1.00  0.00    -0.415 C  
HETATM    8  N   UNL     1     -12.802  15.173  71.308  1.00  0.00    -0.356 NA 
HETATM    9  C   UNL     1     -13.393  15.902  70.169  1.00  0.00     1.143 C  
HETATM   10  C   UNL     1     -12.432  16.063  68.968  1.00  0.00     0.580 C  
BRANCH   8  11
HETATM   11  C   UNL     1     -12.669  13.733  71.003  1.00  0.00    -0.343 C  
BRANCH  11  12
HETATM   12  C   UNL     1     -11.446  13.512  70.108  1.00  0.00    -0.083 C  
BRANCH  12  13
HETATM   13  C   UNL     1     -11.669  13.324  68.643  1.00  0.00    -0.376 C  
HETATM   14  C   UNL     1     -10.824  13.565  67.600  1.00  0.00    -0.273 C  
HETATM   15  C   UNL     1     -11.402  13.286  66.213  1.00  0.00    -0.336 A  
HETATM   16  C   UNL     1     -12.618  12.587  66.010  1.00  0.00     0.437 A  
HETATM   17  C   UNL     1     -13.168  12.372  64.741  1.00  0.00     0.506 A  
HETATM   18  C   UNL     1     -12.501  12.817  63.618  1.00  0.00    -0.482 A  
HETATM   19  C   UNL     1     -11.290  13.477  63.774  1.00  0.00    -0.115 A  
HETATM   20  C   UNL     1     -10.740  13.721  65.053  1.00  0.00    -0.382 A  
HETATM   21  S   UNL     1      -9.208  14.606  65.017  1.00  0.00     2.006 SA 
HETATM   22  C   UNL     1      -8.682  14.646  66.707  1.00  0.00    -0.203 A  
HETATM   23  C   UNL     1      -9.420  14.159  67.801  1.00  0.00    -0.207 A  
HETATM   24  C   UNL     1      -8.771  14.289  69.054  1.00  0.00     0.060 A  
HETATM   25  C   UNL     1      -7.538  14.928  69.230  1.00  0.00    -0.170 A  
HETATM   26  C   UNL     1      -6.848  15.411  68.145  1.00  0.00    -0.135 A  
HETATM   27 CL   UNL     1      -6.898  15.131  70.817  1.00  0.00     0.391 Cl 
HETATM   28  C   UNL     1      -7.410  15.252  66.887  1.00  0.00     0.090 A  
ENDBRANCH  12  13
ENDBRANCH  11  12
ENDBRANCH   8  11
ENDBRANCH   4   5
ENDBRANCH   2   4
TORSDOF 5
ENDMDL
MODEL      215
REMARK 921   NORMALIZED FREE ENERGY PREDICTED BY IDOCK:    7.00 KCAL/MOL
REMARK 922        TOTAL FREE ENERGY PREDICTED BY IDOCK:    8.50 KCAL/MOL
REMARK 923 INTER-LIGAND FREE ENERGY PREDICTED BY IDOCK:    0.70 KCAL/MOL
REMARK 924 INTRA-LIGAND FREE ENERGY PREDICTED BY IDOCK:    7.80 KCAL/MOL
REMARK 927      BINDING AFFINITY PREDICTED BY RF-SCORE:    0.00 PKD
ROOT
HETATM    1  O   UNL     1      -6.572  15.278  72.369  1.00  0.00     1.785 OA 
HETATM    2  C   UNL     1      -5.561  14.664  71.573  1.00  0.00    -0.054 C  
HETATM    3  H   UNL     1      -6.831  14.676  73.057  1.00  0.00     0.000 HD 
ENDROOT
BRANCH   2   4
HETATM    4  C   UNL     1      -5.144  15.633  70.465  1.00  0.00    -0.144 C  
BRANCH   4   5
HETATM    5  N   UNL     1      -5.613  15.288  69.108  1.00  0.00    -0.098 NA 
HETATM    6  C   UNL     1      -6.196  13.925  69.127  1.00  0.00    -0.098 C  
HETATM    7  C   UNL     1      -7.568  13.850  69.840  1.00  0.00     0.779 C  
HETATM    8  N   UNL     1      -8.583  14.780  69.288  1.00  0.00    -0.093 NA 
HETATM    9  C   UNL     1      -8.009  16.139  69.283  1.00  0.00    -0.194 C  
HETATM   10  C   UNL     1      -6.632  16.230  68.586  1.00  0.00    -0.135 C  
BRANCH   8  11
HETATM   11  C   UNL     1      -9.050  14.396  67.939  1.00  0.00    -0.187 C  
BRANCH  11  12
HETATM   12  C   UNL     1      -8.075  13.382  67.333  1.00  0.00    -0.178 C  
BRANCH  12  13
HETATM   13  C   UNL     1      -7.923  12.059  68.008  1.00  0.00    -0.149 C  
HETATM   14  C   UNL     1      -8.813  11.374  68.783  1.00  0.00    -0.076 C  
HETATM   15  C   UNL     1      -8.304  10.046  69.345  1.00  0.00    -0.169 A  
HETATM   16  C   UNL     1      -7.109   9.429  68.901  1.00  0.00    -0.068 A  
HETATM   17  C   UNL     1      -6.621   8.236  69.449  1.00  0.00    -0.042 A  
HETATM   18  C   UNL     1      -7.334   7.593  70.439  1.00  0.00    -0.071 A  
HETATM   19  C   UNL     1      -8.528   8.150  70.877  1.00  0.00    -0.136 A  
HETATM   20  C   UNL     1      -9.014   9.367  70.348  1.00  0.00    -0.250 A  
HETATM   21  S   UNL     1     -10.533   9.907  71.076  1.00  0.00     0.180 SA 
HETATM   22  C   UNL     1     -10.980  11.347  70.146  1.00  0.00     0.302 A  
HETATM   23  C   UNL     1     -10.198  11.939  69.138  1.00  0.00     0.089 A  
HETATM   24  C   UNL     1     -10.785  13.075  68.528  1.00  0.00    -0.275 A  
HETATM   25  C   UNL     1     -12.001  13.638  68.937  1.00  0.00    -0.356 A  
HETATM   26  C   UNL     1     -12.734  13.049  69.938  1.00  0.00     0.281 A  
HETATM   27 CL   UNL     1     -12.563  15.091  68.199  1.00  0.00     0.482 Cl 
HETATM   28  C   UNL     1     -12.234  11.896  70.525  1.00  0.00    -0.426 A  
ENDBRANCH  12  13
ENDBRANCH  11  12
ENDBRANCH   8  11
ENDBRANCH   4   5
ENDBRANCH   2   4
TORSDOF 5
ENDMDL
MODEL      216
REMARK 921   NORMALIZED FREE ENERGY PREDICTED BY IDOCK:    8.77 KCAL/MOL
REMARK 922        TOTAL FREE ENERGY PREDICTED BY IDOCK:   10.78 KCAL/MOL
REMARK 923 INTER-LIGAND FREE ENERGY PREDICTED BY IDOCK:   -0.97 KCAL/MOL
REMARK 924 INTRA-LIGAND FREE ENERGY PREDICTED BY IDOCK:   11.75 KCAL/MOL
REMARK 927      BINDING AFFINITY PREDICTED BY RF-SCORE:    0.00 PKD
ROOT
HETATM    1  O   UNL     1      -9.525   5.675  72.731  1.00  0.00    -0.148 OA 
HETATM    2  C   UNL     1      -8.196   5.165  72.647  1.00  0.00    -0.113 C  
HETATM    3  H   UNL     1      -9.585   6.257  73.480  1.00  0.00     0.000 HD 
ENDROOT
BRANCH   2   4
HETATM    4  C   UNL     1      -8.099   4.228  71.441  1.00  0.00    -0.082 C  
BRANCH   4   5
HETATM    5  N   UNL     1      -6.898   4.397  70.598  1.00  0.00    -0.036 NA 
HETATM    6  C   UNL     1      -6.578   3.105  69.944  1.00  0.00    -0.033 C  
HETATM    7  C   UNL     1      -7.565   2.723  68.814  1.00  0.00    -0.047 C  
HETATM    8  N   UNL     1      -7.698   3.757  67.759  1.00  0.00    -0.070 NA 
HETATM    9  C   UNL     1      -8.032   5.040  68.407  1.00  0.00    -0.086 C  
HETATM   10  C   UNL     1      -7.063   5.429  69.548  1.00  0.00    -0.063 C  
BRANCH   8  11
HETATM   11  C   UNL     1      -6.489   3.887  66.918  1.00  0.00    -0.041 C  
BRANCH  11  12
HETATM   12  C   UNL     1      -5.436   4.709  67.665  1.00  0.00    -0.013 C  
BRANCH  12  13
HETATM   13  C   UNL     1      -5.729   6.147  67.942  1.00  0.00    -0.009 C  
HETATM   14  C   UNL     1      -6.558   7.006  67.280  1.00  0.00    -0.051 C  
HETATM   15  C   UNL     1      -6.590   8.433  67.825  1.00  0.00    -0.062 A  
HETATM   16  C   UNL     1      -6.019   8.796  69.070  1.00  0.00    -0.043 A  
HETATM   17  C   UNL     1      -6.010  10.113  69.547  1.00  0.00    -0.042 A  
HETATM   18  C   UNL     1      -6.608  11.115  68.810  1.00  0.00    -0.059 A  
HETATM   19  C   UNL     1      -7.207  10.792  67.600  1.00  0.00    -0.092 A  
HETATM   20  C   UNL     1      -7.199   9.470  67.100  1.00  0.00    -0.087 A  
HETATM   21  S   UNL     1      -7.990   9.295  65.527  1.00  0.00    -0.107 SA 
HETATM   22  C   UNL     1      -7.963   7.553  65.211  1.00  0.00    -0.126 A  
HETATM   23  C   UNL     1      -7.337   6.589  66.022  1.00  0.00    -0.080 A  
HETATM   24  C   UNL     1      -7.474   5.255  65.564  1.00  0.00    -0.077 A  
HETATM   25  C   UNL     1      -8.097   4.906  64.359  1.00  0.00    -0.114 A  
HETATM   26  C   UNL     1      -8.684   5.871  63.578  1.00  0.00     0.324 A  
HETATM   27 CL   UNL     1      -8.104   3.260  63.845  1.00  0.00    -0.082 Cl 
HETATM   28  C   UNL     1      -8.633   7.187  64.014  1.00  0.00     0.471 A  
ENDBRANCH  12  13
ENDBRANCH  11  12
ENDBRANCH   8  11
ENDBRANCH   4   5
ENDBRANCH   2   4
TORSDOF 5
ENDMDL
MODEL      217
REMARK 921   NORMALIZED FREE ENERGY PREDICTED BY IDOCK:    9.74 KCAL/MOL
REMARK 922        TOTAL FREE ENERGY PREDICTED BY IDOCK:   12.04 KCAL/MOL
REMARK 923 INTER-LIGAND FREE ENERGY PREDICTED BY IDOCK:    9.05 KCAL/MOL
REMARK 924 INTRA-LIGAND FREE ENERGY PREDICTED BY IDOCK:    2.99 KCAL/MOL
REMARK 927      BINDING AFFINITY PREDICTED BY RF-SCORE:    0.00 PKD
ROOT
HETATM    1  O   UNL     1      -6.297  19.000  65.510  1.00  0.00    -0.223 OA 
HETATM    2  C   UNL     1      -6.340  20.390  65.198  1.00  0.00    -0.277 C  
HETATM    3  H   UNL     1      -5.827  18.544  64.822  1.00  0.00     0.000 HD 
ENDROOT
BRANCH   2   4
HETATM    4  C   UNL     1      -7.097  21.125  66.307  1.00  0.00     0.176 C  
BRANCH   4   5
HETATM    5  N   UNL     1      -8.553  20.880  66.353  1.00  0.00     0.412 NA 
HETATM    6  C   UNL     1      -8.976  20.227  65.091  1.00  0.00     1.212 C  
HETATM    7  C   UNL     1      -8.527  18.749  64.979  1.00  0.00     2.782 C  
HETATM    8  N   UNL     1      -8.970  17.901  66.111  1.00  0.00    -0.499 NA 
HETATM    9  C   UNL     1      -8.536  18.542  67.367  1.00  0.00    -0.257 C  
HETATM   10  C   UNL     1      -8.964  20.023  67.490  1.00  0.00    -0.346 C  
BRANCH   8  11
HETATM   11  C   UNL     1     -10.427  17.655  66.118  1.00  0.00    -0.295 C  
BRANCH  11  12
HETATM   12  C   UNL     1     -10.698  16.212  66.556  1.00  0.00    -0.220 C  
BRANCH  12  13
HETATM   13  C   UNL     1     -11.320  15.987  67.895  1.00  0.00    -0.218 C  
HETATM   14  C   UNL     1     -10.729  15.680  69.085  1.00  0.00    -0.243 C  
HETATM   15  C   UNL     1     -11.687  15.485  70.260  1.00  0.00    -0.367 A  
HETATM   16  C   UNL     1     -13.057  15.842  70.205  1.00  0.00     0.557 A  
HETATM   17  C   UNL     1     -13.943  15.621  71.267  1.00  0.00    -0.199 A  
HETATM   18  C   UNL     1     -13.482  15.065  72.442  1.00  0.00    -0.533 A  
HETATM   19  C   UNL     1     -12.139  14.732  72.545  1.00  0.00    -0.318 A  
HETATM   20  C   UNL     1     -11.243  14.928  71.470  1.00  0.00    -0.054 A  
HETATM   21  S   UNL     1      -9.589  14.401  71.811  1.00  0.00     6.565 SA 
HETATM   22  C   UNL     1      -8.667  14.886  70.379  1.00  0.00     1.265 A  
HETATM   23  C   UNL     1      -9.213  15.460  69.217  1.00  0.00    -0.259 A  
HETATM   24  C   UNL     1      -8.262  15.779  68.215  1.00  0.00    -0.143 A  
HETATM   25  C   UNL     1      -6.899  15.474  68.310  1.00  0.00    -0.116 A  
HETATM   26  C   UNL     1      -6.397  14.896  69.451  1.00  0.00    -0.124 A  
HETATM   27 CL   UNL     1      -5.853  15.804  66.980  1.00  0.00     0.187 Cl 
HETATM   28  C   UNL     1      -7.276  14.622  70.488  1.00  0.00     0.587 A  
ENDBRANCH  12  13
ENDBRANCH  11  12
ENDBRANCH   8  11
ENDBRANCH   4   5
ENDBRANCH   2   4
TORSDOF 5
ENDMDL
MODEL      218
REMARK 921   NORMALIZED FREE ENERGY PREDICTED BY IDOCK:   11.14 KCAL/MOL
REMARK 922        TOTAL FREE ENERGY PREDICTED BY IDOCK:   13.84 KCAL/MOL
REMARK 923 INTER-LIGAND FREE ENERGY PREDICTED BY IDOCK:    6.11 KCAL/MOL
REMARK 924 INTRA-LIGAND FREE ENERGY PREDICTED BY IDOCK:    7.73 KCAL/MOL
REMARK 927      BINDING AFFINITY PREDICTED BY RF-SCORE:    0.00 PKD
ROOT
HETATM    1  O   UNL     1      -6.559  16.072  71.548  1.00  0.00     1.920 OA 
HETATM    2  C   UNL     1      -5.546  15.462  70.752  1.00  0.00    -0.068 C  
HETATM    3  H   UNL     1      -6.813  15.471  72.238  1.00  0.00     0.000 HD 
ENDROOT
BRANCH   2   4
HETATM    4  C   UNL     1      -5.137  16.430  69.640  1.00  0.00    -0.129 C  
BRANCH   4   5
HETATM    5  N   UNL     1      -5.609  16.080  68.285  1.00  0.00    -0.103 NA 
HETATM    6  C   UNL     1      -6.501  14.899  68.372  1.00  0.00    -0.106 C  
HETATM    7  C   UNL     1      -7.884  15.212  68.993  1.00  0.00    -0.181 C  
HETATM    8  N   UNL     1      -8.620  16.298  68.301  1.00  0.00    -0.190 NA 
HETATM    9  C   UNL     1      -7.739  17.480  68.228  1.00  0.00    -0.247 C  
HETATM   10  C   UNL     1      -6.348  17.182  67.623  1.00  0.00    -0.143 C  
BRANCH   8  11
HETATM   11  C   UNL     1      -9.100  15.911  66.958  1.00  0.00    -0.217 C  
BRANCH  11  12
HETATM   12  C   UNL     1      -8.365  14.647  66.500  1.00  0.00     0.192 C  
BRANCH  12  13
HETATM   13  C   UNL     1      -8.561  13.394  67.288  1.00  0.00    -0.216 C  
HETATM   14  C   UNL     1      -9.620  13.010  68.058  1.00  0.00    -0.224 C  
HETATM   15  C   UNL     1      -9.465  11.659  68.757  1.00  0.00    -0.068 A  
HETATM   16  C   UNL     1      -8.431  10.743  68.442  1.00  0.00    -0.137 A  
HETATM   17  C   UNL     1      -8.263   9.526  69.115  1.00  0.00    -0.111 A  
HETATM   18  C   UNL     1      -9.151   9.161  70.106  1.00  0.00    -0.229 A  
HETATM   19  C   UNL     1     -10.196  10.019  70.420  1.00  0.00    -0.218 A  
HETATM   20  C   UNL     1     -10.357  11.260  69.764  1.00  0.00     0.372 A  
HETATM   21  S   UNL     1     -11.736  12.204  70.346  1.00  0.00     0.119 SA 
HETATM   22  C   UNL     1     -11.788  13.614  69.277  1.00  0.00    -0.346 A  
HETATM   23  C   UNL     1     -10.846  13.911  68.276  1.00  0.00    -0.263 A  
HETATM   24  C   UNL     1     -11.121  15.091  67.539  1.00  0.00    -0.317 A  
HETATM   25  C   UNL     1     -12.185  15.955  67.823  1.00  0.00     0.905 A  
HETATM   26  C   UNL     1     -13.080  15.649  68.819  1.00  0.00     2.037 A  
HETATM   27 CL   UNL     1     -12.356  17.423  66.935  1.00  0.00     3.756 Cl 
HETATM   28  C   UNL     1     -12.892  14.472  69.529  1.00  0.00     0.322 A  
ENDBRANCH  12  13
ENDBRANCH  11  12
ENDBRANCH   8  11
ENDBRANCH   4   5
ENDBRANCH   2   4
TORSDOF 5
ENDMDL
MODEL      219
REMARK 921   NORMALIZED FREE ENERGY PREDICTED BY IDOCK:   12.47 KCAL/MOL
REMARK 922        TOTAL FREE ENERGY PREDICTED BY IDOCK:   15.57 KCAL/MOL
REMARK 923 INTER-LIGAND FREE ENERGY PREDICTED BY IDOCK:    6.95 KCAL/MOL
REMARK 924 INTRA-LIGAND FREE ENERGY PREDICTED BY IDOCK:    8.62 KCAL/MOL
REMARK 927      BINDING AFFINITY PREDICTED BY RF-SCORE:    0.00 PKD
ROOT
HETATM    1  O   UNL     1      -7.802   9.524  63.878  1.00  0.00    -0.121 OA 
HETATM    2  C   UNL     1      -8.477  10.748  64.161  1.00  0.00     0.017 C  
HETATM    3  H   UNL     1      -6.954   9.720  63.498  1.00  0.00     0.000 HD 
ENDROOT
BRANCH   2   4
HETATM    4  C   UNL     1      -9.844  10.432  64.772  1.00  0.00    -0.340 C  
BRANCH   4   5
HETATM    5  N   UNL     1      -9.813   9.791  66.103  1.00  0.00    -0.244 NA 
HETATM    6  C   UNL     1     -11.158   9.250  66.412  1.00  0.00     1.019 C  
HETATM    7  C   UNL     1     -11.522   7.989  65.589  1.00  0.00     6.983 C  
HETATM    8  N   UNL     1     -10.539   6.887  65.715  1.00  0.00     1.561 NA 
HETATM    9  C   UNL     1      -9.201   7.420  65.392  1.00  0.00     0.447 C  
HETATM   10  C   UNL     1      -8.827   8.688  66.195  1.00  0.00    -0.171 C  
BRANCH   8  11
HETATM   11  C   UNL     1     -10.547   6.250  67.049  1.00  0.00    -0.318 C  
BRANCH  11  12
HETATM   12  C   UNL     1     -10.761   7.321  68.123  1.00  0.00    -0.191 C  
BRANCH  12  13
HETATM   13  C   UNL     1      -9.685   8.336  68.330  1.00  0.00    -0.170 C  
HETATM   14  C   UNL     1      -8.550   8.254  69.082  1.00  0.00    -0.138 C  
HETATM   15  C   UNL     1      -7.680   9.511  69.092  1.00  0.00    -0.081 A  
HETATM   16  C   UNL     1      -7.877  10.592  68.198  1.00  0.00    -0.109 A  
HETATM   17  C   UNL     1      -7.108  11.762  68.239  1.00  0.00    -0.079 A  
HETATM   18  C   UNL     1      -6.083  11.879  69.155  1.00  0.00    -0.078 A  
HETATM   19  C   UNL     1      -5.839  10.827  70.027  1.00  0.00    -0.083 A  
HETATM   20  C   UNL     1      -6.626   9.653  70.010  1.00  0.00    -0.072 A  
HETATM   21  S   UNL     1      -6.158   8.459  71.229  1.00  0.00    -0.042 SA 
HETATM   22  C   UNL     1      -7.191   7.060  70.895  1.00  0.00    -0.072 A  
HETATM   23  C   UNL     1      -8.213   7.016  69.929  1.00  0.00    -0.130 A  
HETATM   24  C   UNL     1      -8.886   5.771  69.841  1.00  0.00    -0.130 A  
HETATM   25  C   UNL     1      -8.636   4.689  70.693  1.00  0.00    -0.099 A  
HETATM   26  C   UNL     1      -7.644   4.767  71.640  1.00  0.00    -0.091 A  
HETATM   27 CL   UNL     1      -9.597   3.263  70.570  1.00  0.00    -0.243 Cl 
HETATM   28  C   UNL     1      -6.912   5.942  71.725  1.00  0.00    -0.073 A  
ENDBRANCH  12  13
ENDBRANCH  11  12
ENDBRANCH   8  11
ENDBRANCH   4   5
ENDBRANCH   2   4
TORSDOF 5
ENDMDL
MODEL      220
REMARK 921   NORMALIZED FREE ENERGY PREDICTED BY IDOCK:   13.88 KCAL/MOL
REMARK 922        TOTAL FREE ENERGY PREDICTED BY IDOCK:   17.39 KCAL/MOL
REMARK 923 INTER-LIGAND FREE ENERGY PREDICTED BY IDOCK:   13.10 KCAL/MOL
REMARK 924 INTRA-LIGAND FREE ENERGY PREDICTED BY IDOCK:    4.28 KCAL/MOL
REMARK 927      BINDING AFFINITY PREDICTED BY RF-SCORE:    0.00 PKD
ROOT
HETATM    1  O   UNL     1      -6.542  15.652  71.929  1.00  0.00     1.954 OA 
HETATM    2  C   UNL     1      -5.548  15.016  71.129  1.00  0.00    -0.022 C  
HETATM    3  H   UNL     1      -6.786  15.069  72.638  1.00  0.00     0.000 HD 
ENDROOT
BRANCH   2   4
HETATM    4  C   UNL     1      -5.154  15.955  69.986  1.00  0.00    -0.126 C  
BRANCH   4   5
HETATM    5  N   UNL     1      -5.684  15.595  68.655  1.00  0.00    -0.096 NA 
HETATM    6  C   UNL     1      -6.633  14.465  68.799  1.00  0.00    -0.090 C  
HETATM    7  C   UNL     1      -7.980  14.869  69.450  1.00  0.00    -0.123 C  
HETATM    8  N   UNL     1      -8.677  15.973  68.749  1.00  0.00    -0.209 NA 
HETATM    9  C   UNL     1      -7.738  17.104  68.618  1.00  0.00    -0.260 C  
HETATM   10  C   UNL     1      -6.383  16.716  67.983  1.00  0.00    -0.137 C  
BRANCH   8  11
HETATM   11  C   UNL     1      -9.216  15.577  67.430  1.00  0.00    -0.202 C  
BRANCH  11  12
HETATM   12  C   UNL     1      -8.561  14.265  66.987  1.00  0.00    -0.213 C  
BRANCH  12  13
HETATM   13  C   UNL     1      -9.259  13.442  65.956  1.00  0.00     0.088 C  
HETATM   14  C   UNL     1     -10.132  13.830  64.982  1.00  0.00    -0.310 C  
HETATM   15  C   UNL     1     -10.686  12.701  64.112  1.00  0.00    -0.435 A  
HETATM   16  C   UNL     1     -10.155  11.388  64.124  1.00  0.00    -0.358 A  
HETATM   17  C   UNL     1     -10.692  10.344  63.361  1.00  0.00     1.004 A  
HETATM   18  C   UNL     1     -11.762  10.585  62.524  1.00  0.00     3.168 A  
HETATM   19  C   UNL     1     -12.289  11.868  62.461  1.00  0.00     1.401 A  
HETATM   20  C   UNL     1     -11.769  12.921  63.247  1.00  0.00    -0.342 A  
HETATM   21  S   UNL     1     -12.615  14.460  63.031  1.00  0.00     2.396 SA 
HETATM   22  C   UNL     1     -11.686  15.613  64.002  1.00  0.00     0.070 A  
HETATM   23  C   UNL     1     -10.594  15.288  64.826  1.00  0.00    -0.283 A  
HETATM   24  C   UNL     1     -10.005  16.395  65.487  1.00  0.00    -0.175 A  
HETATM   25  C   UNL     1     -10.505  17.701  65.416  1.00  0.00     0.096 A  
HETATM   26  C   UNL     1     -11.585  17.986  64.617  1.00  0.00     3.443 A  
HETATM   27 CL   UNL     1      -9.777  18.949  66.356  1.00  0.00    -0.377 Cl 
HETATM   28  C   UNL     1     -12.160  16.948  63.898  1.00  0.00     3.243 A  
ENDBRANCH  12  13
ENDBRANCH  11  12
ENDBRANCH   8  11
ENDBRANCH   4   5
ENDBRANCH   2   4
TORSDOF 5
ENDMDL
MODEL      221
REMARK 921   NORMALIZED FREE ENERGY PREDICTED BY IDOCK:   15.19 KCAL/MOL
REMARK 922        TOTAL FREE ENERGY PREDICTED BY IDOCK:   19.08 KCAL/MOL
REMARK 923 INTER-LIGAND FREE ENERGY PREDICTED BY IDOCK:   17.21 KCAL/MOL
REMARK 924 INTRA-LIGAND FREE ENERGY PREDICTED BY IDOCK:    1.87 KCAL/MOL
REMARK 927      BINDING AFFINITY PREDICTED BY RF-SCORE:    0.00 PKD
ROOT
HETATM    1  O   UNL     1      -8.649  15.919  72.092  1.00  0.00     7.128 OA 
HETATM    2  C   UNL     1      -9.638  15.169  71.392  1.00  0.00     2.714 C  
HETATM    3  H   UNL     1      -9.015  16.761  72.337  1.00  0.00     0.000 HD 
ENDROOT
BRANCH   2   4
HETATM    4  C   UNL     1      -9.048  13.813  70.999  1.00  0.00     6.832 C  
BRANCH   4   5
HETATM    5  N   UNL     1      -8.709  13.657  69.570  1.00  0.00     0.926 NA 
HETATM    6  C   UNL     1      -7.463  14.406  69.281  1.00  0.00    -0.060 C  
HETATM    7  C   UNL     1      -6.192  13.740  69.863  1.00  0.00    -0.129 C  
HETATM    8  N   UNL     1      -5.999  12.335  69.429  1.00  0.00    -0.090 NA 
HETATM    9  C   UNL     1      -7.233  11.585  69.730  1.00  0.00     0.279 C  
HETATM   10  C   UNL     1      -8.514  12.244  69.168  1.00  0.00     0.581 C  
BRANCH   8  11
HETATM   11  C   UNL     1      -5.639  12.212  68.001  1.00  0.00    -0.060 C  
BRANCH  11  12
HETATM   12  C   UNL     1      -6.709  11.390  67.276  1.00  0.00    -0.111 C  
BRANCH  12  13
HETATM   13  C   UNL     1      -6.933   9.981  67.716  1.00  0.00    -0.085 C  
HETATM   14  C   UNL     1      -7.255   8.882  66.974  1.00  0.00    -0.079 C  
HETATM   15  C   UNL     1      -7.444   7.589  67.767  1.00  0.00    -0.101 A  
HETATM   16  C   UNL     1      -7.067   7.457  69.126  1.00  0.00    -0.079 A  
HETATM   17  C   UNL     1      -7.282   6.287  69.865  1.00  0.00    -0.074 A  
HETATM   18  C   UNL     1      -7.850   5.186  69.257  1.00  0.00    -0.080 A  
HETATM   19  C   UNL     1      -8.204   5.267  67.917  1.00  0.00    -0.099 A  
HETATM   20  C   UNL     1      -8.013   6.452  67.172  1.00  0.00    -0.112 A  
HETATM   21  S   UNL     1      -8.565   6.340  65.495  1.00  0.00    -0.077 SA 
HETATM   22  C   UNL     1      -8.085   7.881  64.768  1.00  0.00    -0.141 A  
HETATM   23  C   UNL     1      -7.497   8.957  65.457  1.00  0.00    -0.086 A  
HETATM   24  C   UNL     1      -7.186  10.077  64.646  1.00  0.00    -0.140 A  
HETATM   25  C   UNL     1      -7.510  10.167  63.287  1.00  0.00    -0.139 A  
HETATM   26  C   UNL     1      -8.101   9.108  62.644  1.00  0.00    -0.148 A  
HETATM   27 CL   UNL     1      -7.188  11.626  62.425  1.00  0.00     0.567 Cl 
HETATM   28  C   UNL     1      -8.369   7.962  63.379  1.00  0.00     0.071 A  
ENDBRANCH  12  13
ENDBRANCH  11  12
ENDBRANCH   8  11
ENDBRANCH   4   5
ENDBRANCH   2   4
TORSDOF 5
ENDMDL
MODEL      222
REMARK 921   NORMALIZED FREE ENERGY PREDICTED BY IDOCK:   15.80 KCAL/MOL
REMARK 922        TOTAL FREE ENERGY PREDICTED BY IDOCK:   19.87 KCAL/MOL
REMARK 923 INTER-LIGAND FREE ENERGY PREDICTED BY IDOCK:   -0.83 KCAL/MOL
REMARK 924 INTRA-LIGAND FREE ENERGY PREDICTED BY IDOCK:   20.70 KCAL/MOL
REMARK 927      BINDING AFFINITY PREDICTED BY RF-SCORE:    0.00 PKD
ROOT
HETATM    1  O   UNL     1     -11.340  11.364  67.643  1.00  0.00    -0.272 OA 
HETATM    2  C   UNL     1     -11.018  12.386  66.703  1.00  0.00    -0.268 C  
HETATM    3  H   UNL     1     -12.160  10.957  67.388  1.00  0.00     0.000 HD 
ENDROOT
BRANCH   2   4
HETATM    4  C   UNL     1      -9.698  13.041  67.114  1.00  0.00    -0.230 C  
BRANCH   4   5
HETATM    5  N   UNL     1      -9.396  14.330  66.460  1.00  0.00    -0.282 NA 
HETATM    6  C   UNL     1      -9.776  14.250  65.029  1.00  0.00     0.166 C  
HETATM    7  C   UNL     1     -11.307  14.259  64.795  1.00  0.00    -0.382 C  
HETATM    8  N   UNL     1     -11.999  15.426  65.394  1.00  0.00     0.174 NA 
HETATM    9  C   UNL     1     -11.633  15.498  66.822  1.00  0.00     0.132 C  
HETATM   10  C   UNL     1     -10.107  15.476  67.074  1.00  0.00    -0.254 C  
BRANCH   8  11
HETATM   11  C   UNL     1     -11.695  16.697  64.704  1.00  0.00     0.548 C  
BRANCH  11  12
HETATM   12  C   UNL     1     -11.408  17.784  65.745  1.00  0.00     1.172 C  
BRANCH  12  13
HETATM   13  C   UNL     1     -10.016  18.316  65.843  1.00  0.00    -0.100 C  
HETATM   14  C   UNL     1      -9.042  18.034  66.756  1.00  0.00    -0.280 C  
HETATM   15  C   UNL     1      -7.730  18.797  66.570  1.00  0.00    -0.273 A  
HETATM   16  C   UNL     1      -7.432  19.544  65.404  1.00  0.00     0.056 A  
HETATM   17  C   UNL     1      -6.249  20.279  65.254  1.00  0.00    -0.290 A  
HETATM   18  C   UNL     1      -5.300  20.264  66.255  1.00  0.00    -0.187 A  
HETATM   19  C   UNL     1      -5.542  19.516  67.399  1.00  0.00    -0.170 A  
HETATM   20  C   UNL     1      -6.744  18.792  67.569  1.00  0.00    -0.200 A  
HETATM   21  S   UNL     1      -6.854  17.940  69.116  1.00  0.00    -0.176 SA 
HETATM   22  C   UNL     1      -8.362  17.019  69.005  1.00  0.00    -0.125 A  
HETATM   23  C   UNL     1      -9.277  17.082  67.940  1.00  0.00    -0.239 A  
HETATM   24  C   UNL     1     -10.402  16.230  68.078  1.00  0.00    -0.279 A  
HETATM   25  C   UNL     1     -10.652  15.449  69.213  1.00  0.00    -0.252 A  
HETATM   26  C   UNL     1      -9.748  15.421  70.247  1.00  0.00     0.250 A  
HETATM   27 CL   UNL     1     -12.112  14.539  69.321  1.00  0.00    -0.348 Cl 
HETATM   28  C   UNL     1      -8.599  16.188  70.133  1.00  0.00     1.279 A  
ENDBRANCH  12  13
ENDBRANCH  11  12
ENDBRANCH   8  11
ENDBRANCH   4   5
ENDBRANCH   2   4
TORSDOF 5
ENDMDL
MODEL      223
REMARK 921   NORMALIZED FREE ENERGY PREDICTED BY IDOCK:   16.14 KCAL/MOL
REMARK 922        TOTAL FREE ENERGY PREDICTED BY IDOCK:   20.31 KCAL/MOL
REMARK 923 INTER-LIGAND FREE ENERGY PREDICTED BY IDOCK:   12.23 KCAL/MOL
REMARK 924 INTRA-LIGAND FREE ENERGY PREDICTED BY IDOCK:    8.08 KCAL/MOL
REMARK 927      BINDING AFFINITY PREDICTED BY RF-SCORE:    0.00 PKD
ROOT
HETATM    1  O   UNL     1      -8.446  10.456  70.591  1.00  0.00    -0.120 OA 
HETATM    2  C   UNL     1      -8.381  11.694  69.888  1.00  0.00     1.880 C  
HETATM    3  H   UNL     1      -7.616  10.306  71.029  1.00  0.00     0.000 HD 
ENDROOT
BRANCH   2   4
HETATM    4  C   UNL     1      -9.717  11.935  69.182  1.00  0.00     0.318 C  
BRANCH   4   5
HETATM    5  N   UNL     1      -9.902  13.285  68.612  1.00  0.00    -0.150 NA 
HETATM    6  C   UNL     1      -9.773  13.212  67.137  1.00  0.00    -0.235 C  
HETATM    7  C   UNL     1     -10.980  12.534  66.444  1.00  0.00    -0.273 C  
HETATM    8  N   UNL     1     -12.285  13.160  66.764  1.00  0.00    -0.346 NA 
HETATM    9  C   UNL     1     -12.422  13.219  68.232  1.00  0.00     0.413 C  
HETATM   10  C   UNL     1     -11.218  13.881  68.942  1.00  0.00    -0.271 C  
BRANCH   8  11
HETATM   11  C   UNL     1     -12.450  14.500  66.162  1.00  0.00    -0.138 C  
BRANCH  11  12
HETATM   12  C   UNL     1     -12.620  15.539  67.274  1.00  0.00     1.720 C  
BRANCH  12  13
HETATM   13  C   UNL     1     -11.446  16.391  67.628  1.00  0.00     0.144 C  
HETATM   14  C   UNL     1     -10.862  16.601  68.843  1.00  0.00    -0.321 C  
HETATM   15  C   UNL     1      -9.683  17.574  68.843  1.00  0.00    -0.259 A  
HETATM   16  C   UNL     1      -9.062  18.032  67.655  1.00  0.00    -0.255 A  
HETATM   17  C   UNL     1      -8.012  18.959  67.656  1.00  0.00    -0.273 A  
HETATM   18  C   UNL     1      -7.516  19.435  68.852  1.00  0.00    -0.399 A  
HETATM   19  C   UNL     1      -8.078  18.984  70.038  1.00  0.00     1.132 A  
HETATM   20  C   UNL     1      -9.155  18.069  70.046  1.00  0.00     1.922 A  
HETATM   21  S   UNL     1      -9.733  17.658  71.667  1.00  0.00     8.131 SA 
HETATM   22  C   UNL     1     -10.961  16.412  71.394  1.00  0.00     0.495 A  
HETATM   23  C   UNL     1     -11.407  15.971  70.135  1.00  0.00    -0.369 A  
HETATM   24  C   UNL     1     -12.385  14.946  70.183  1.00  0.00    -0.376 A  
HETATM   25  C   UNL     1     -12.946  14.459  71.370  1.00  0.00    -0.335 A  
HETATM   26  C   UNL     1     -12.504  14.922  72.585  1.00  0.00    -0.436 A  
HETATM   27 CL   UNL     1     -14.213  13.293  71.302  1.00  0.00     0.847 Cl 
HETATM   28  C   UNL     1     -11.501  15.880  72.596  1.00  0.00    -0.217 A  
ENDBRANCH  12  13
ENDBRANCH  11  12
ENDBRANCH   8  11
ENDBRANCH   4   5
ENDBRANCH   2   4
TORSDOF 5
ENDMDL
MODEL      224
REMARK 921   NORMALIZED FREE ENERGY PREDICTED BY IDOCK:   19.77 KCAL/MOL
REMARK 922        TOTAL FREE ENERGY PREDICTED BY IDOCK:   25.00 KCAL/MOL
REMARK 923 INTER-LIGAND FREE ENERGY PREDICTED BY IDOCK:   15.63 KCAL/MOL
REMARK 924 INTRA-LIGAND FREE ENERGY PREDICTED BY IDOCK:    9.37 KCAL/MOL
REMARK 927      BINDING AFFINITY PREDICTED BY RF-SCORE:    0.00 PKD
ROOT
HETATM    1  O   UNL     1     -14.367   9.975  70.827  1.00  0.00     0.434 OA 
HETATM    2  C   UNL     1     -13.913   9.631  72.134  1.00  0.00    -0.144 C  
HETATM    3  H   UNL     1     -15.301   9.809  70.771  1.00  0.00     0.000 HD 
ENDROOT
BRANCH   2   4
HETATM    4  C   UNL     1     -12.409   9.899  72.224  1.00  0.00     0.101 C  
BRANCH   4   5
HETATM    5  N   UNL     1     -11.870  10.843  71.224  1.00  0.00    -0.129 NA 
HETATM    6  C   UNL     1     -11.831  10.178  69.899  1.00  0.00    -0.135 C  
HETATM    7  C   UNL     1     -13.229   9.987  69.262  1.00  0.00     2.754 C  
HETATM    8  N   UNL     1     -14.004  11.244  69.127  1.00  0.00     5.099 NA 
HETATM    9  C   UNL     1     -14.056  11.899  70.448  1.00  0.00     4.495 C  
HETATM   10  C   UNL     1     -12.669  12.085  71.105  1.00  0.00    -0.266 C  
BRANCH   8  11
HETATM   11  C   UNL     1     -13.453  12.158  68.104  1.00  0.00     6.734 C  
BRANCH  11  12
HETATM   12  C   UNL     1     -11.931  12.233  68.255  1.00  0.00    -0.259 C  
BRANCH  12  13
HETATM   13  C   UNL     1     -11.259  13.537  67.979  1.00  0.00    -0.300 C  
HETATM   14  C   UNL     1      -9.940  13.801  67.750  1.00  0.00    -0.242 C  
HETATM   15  C   UNL     1      -9.596  15.275  67.535  1.00  0.00    -0.206 A  
HETATM   16  C   UNL     1     -10.578  16.274  67.327  1.00  0.00    -0.298 A  
HETATM   17  C   UNL     1     -10.264  17.630  67.176  1.00  0.00    -0.342 A  
HETATM   18  C   UNL     1      -8.945  18.035  67.190  1.00  0.00    -0.255 A  
HETATM   19  C   UNL     1      -7.951  17.080  67.359  1.00  0.00    -0.197 A  
HETATM   20  C   UNL     1      -8.262  15.713  67.538  1.00  0.00    -0.166 A  
HETATM   21  S   UNL     1      -6.843  14.682  67.768  1.00  0.00    -0.182 SA 
HETATM   22  C   UNL     1      -7.497  13.037  67.821  1.00  0.00    -0.146 A  
HETATM   23  C   UNL     1      -8.864  12.704  67.791  1.00  0.00    -0.179 A  
HETATM   24  C   UNL     1      -9.132  11.313  67.825  1.00  0.00    -0.152 A  
HETATM   25  C   UNL     1      -8.142  10.333  67.969  1.00  0.00    -0.106 A  
HETATM   26  C   UNL     1      -6.816  10.689  68.014  1.00  0.00    -0.072 A  
HETATM   27 CL   UNL     1      -8.594   8.675  68.116  1.00  0.00    -0.140 Cl 
HETATM   28  C   UNL     1      -6.496  12.035  67.921  1.00  0.00    -0.072 A  
ENDBRANCH  12  13
ENDBRANCH  11  12
ENDBRANCH   8  11
ENDBRANCH   4   5
ENDBRANCH   2   4
TORSDOF 5
ENDMDL
MODEL      225
REMARK 921   NORMALIZED FREE ENERGY PREDICTED BY IDOCK:   23.59 KCAL/MOL
REMARK 922        TOTAL FREE ENERGY PREDICTED BY IDOCK:   29.94 KCAL/MOL
REMARK 923 INTER-LIGAND FREE ENERGY PREDICTED BY IDOCK:   26.93 KCAL/MOL
REMARK 924 INTRA-LIGAND FREE ENERGY PREDICTED BY IDOCK:    3.01 KCAL/MOL
REMARK 927      BINDING AFFINITY PREDICTED BY RF-SCORE:    0.00 PKD
ROOT
HETATM    1  O   UNL     1     -11.331  17.853  63.010  1.00  0.00     7.522 OA 
HETATM    2  C   UNL     1     -10.864  19.029  63.665  1.00  0.00    11.214 C  
HETATM    3  H   UNL     1     -11.944  18.101  62.328  1.00  0.00     0.000 HD 
ENDROOT
BRANCH   2   4
HETATM    4  C   UNL     1      -9.877  18.628  64.763  1.00  0.00     3.829 C  
BRANCH   4   5
HETATM    5  N   UNL     1     -10.483  18.243  66.054  1.00  0.00    -0.521 NA 
HETATM    6  C   UNL     1     -10.788  16.792  66.034  1.00  0.00    -0.026 C  
HETATM    7  C   UNL     1      -9.529  15.895  66.127  1.00  0.00    -0.340 C  
HETATM    8  N   UNL     1      -8.679  16.174  67.309  1.00  0.00    -0.178 NA 
HETATM    9  C   UNL     1      -8.362  17.615  67.322  1.00  0.00    -0.215 C  
HETATM   10  C   UNL     1      -9.607  18.526  67.216  1.00  0.00    -0.294 C  
BRANCH   8  11
HETATM   11  C   UNL     1      -9.302  15.757  68.584  1.00  0.00    -0.206 C  
BRANCH  11  12
HETATM   12  C   UNL     1     -10.267  14.597  68.323  1.00  0.00    -0.227 C  
BRANCH  12  13
HETATM   13  C   UNL     1      -9.718  13.208  68.333  1.00  0.00    -0.196 C  
HETATM   14  C   UNL     1      -8.599  12.723  68.943  1.00  0.00     0.316 C  
HETATM   15  C   UNL     1      -8.320  11.237  68.713  1.00  0.00    -0.120 A  
HETATM   16  C   UNL     1      -9.266  10.356  68.134  1.00  0.00    -0.145 A  
HETATM   17  C   UNL     1      -8.992   9.006  67.882  1.00  0.00    -0.135 A  
HETATM   18  C   UNL     1      -7.769   8.476  68.235  1.00  0.00    -0.102 A  
HETATM   19  C   UNL     1      -6.827   9.301  68.834  1.00  0.00    -0.056 A  
HETATM   20  C   UNL     1      -7.086  10.670  69.069  1.00  0.00    -0.086 A  
HETATM   21  S   UNL     1      -5.733  11.537  69.811  1.00  0.00    -0.106 SA 
HETATM   22  C   UNL     1      -6.368  13.161  70.120  1.00  0.00     0.043 A  
HETATM   23  C   UNL     1      -7.639  13.625  69.736  1.00  0.00     0.795 A  
HETATM   24  C   UNL     1      -7.919  14.961  70.118  1.00  0.00     0.529 A  
HETATM   25  C   UNL     1      -6.992  15.801  70.746  1.00  0.00     1.360 A  
HETATM   26  C   UNL     1      -5.750  15.327  71.094  1.00  0.00     0.133 A  
HETATM   27 CL   UNL     1      -7.403  17.446  71.061  1.00  0.00     4.299 Cl 
HETATM   28  C   UNL     1      -5.449  14.005  70.799  1.00  0.00    -0.159 A  
ENDBRANCH  12  13
ENDBRANCH  11  12
ENDBRANCH   8  11
ENDBRANCH   4   5
ENDBRANCH   2   4
TORSDOF 5
ENDMDL
MODEL      226
REMARK 921   NORMALIZED FREE ENERGY PREDICTED BY IDOCK:   37.19 KCAL/MOL
REMARK 922        TOTAL FREE ENERGY PREDICTED BY IDOCK:   47.50 KCAL/MOL
REMARK 923 INTER-LIGAND FREE ENERGY PREDICTED BY IDOCK:   44.83 KCAL/MOL
REMARK 924 INTRA-LIGAND FREE ENERGY PREDICTED BY IDOCK:    2.67 KCAL/MOL
REMARK 927      BINDING AFFINITY PREDICTED BY RF-SCORE:    0.00 PKD
ROOT
HETATM    1  O   UNL     1      -6.307  18.958  65.328  1.00  0.00    -0.261 OA 
HETATM    2  C   UNL     1      -6.485  20.260  64.776  1.00  0.00    -0.282 C  
HETATM    3  H   UNL     1      -5.687  18.478  64.792  1.00  0.00     0.000 HD 
ENDROOT
BRANCH   2   4
HETATM    4  C   UNL     1      -7.484  21.034  65.640  1.00  0.00     0.636 C  
BRANCH   4   5
HETATM    5  N   UNL     1      -8.880  20.555  65.583  1.00  0.00     0.338 NA 
HETATM    6  C   UNL     1      -9.116  19.901  64.273  1.00  0.00     5.387 C  
HETATM    7  C   UNL     1      -8.424  18.522  64.138  1.00  0.00     9.348 C  
HETATM    8  N   UNL     1      -8.786  17.562  65.208  1.00  0.00     0.884 NA 
HETATM    9  C   UNL     1      -8.538  18.206  66.512  1.00  0.00    -0.263 C  
HETATM   10  C   UNL     1      -9.210  19.591  66.659  1.00  0.00    -0.354 C  
BRANCH   8  11
HETATM   11  C   UNL     1     -10.182  17.083  65.111  1.00  0.00     0.375 C  
BRANCH  11  12
HETATM   12  C   UNL     1     -10.228  15.584  65.422  1.00  0.00    -0.409 C  
BRANCH  12  13
HETATM   13  C   UNL     1     -10.534  15.163  66.821  1.00  0.00    -0.283 C  
HETATM   14  C   UNL     1     -11.367  14.180  67.268  1.00  0.00    -0.349 C  
HETATM   15  C   UNL     1     -11.465  14.046  68.788  1.00  0.00    -0.327 A  
HETATM   16  C   UNL     1     -10.579  14.700  69.678  1.00  0.00    -0.125 A  
HETATM   17  C   UNL     1     -10.698  14.613  71.070  1.00  0.00     0.580 A  
HETATM   18  C   UNL     1     -11.690  13.833  71.627  1.00  0.00     0.863 A  
HETATM   19  C   UNL     1     -12.559  13.150  70.786  1.00  0.00    -0.338 A  
HETATM   20  C   UNL     1     -12.461  13.254  69.380  1.00  0.00     0.129 A  
HETATM   21  S   UNL     1     -13.690  12.326  68.508  1.00  0.00     9.289 SA 
HETATM   22  C   UNL     1     -13.255  12.514  66.802  1.00  0.00     4.170 A  
HETATM   23  C   UNL     1     -12.215  13.325  66.312  1.00  0.00    -0.440 A  
HETATM   24  C   UNL     1     -12.054  13.289  64.904  1.00  0.00    -0.440 A  
HETATM   25  C   UNL     1     -12.903  12.586  64.041  1.00  0.00    -0.222 A  
HETATM   26  C   UNL     1     -13.922  11.817  64.546  1.00  0.00     3.805 A  
HETATM   27 CL   UNL     1     -12.682  12.708  62.335  1.00  0.00     1.764 Cl 
HETATM   28  C   UNL     1     -14.084  11.767  65.923  1.00  0.00    11.360 A  
ENDBRANCH  12  13
ENDBRANCH  11  12
ENDBRANCH   8  11
ENDBRANCH   4   5
ENDBRANCH   2   4
TORSDOF 5
ENDMDL
