MODEL        1
REMARK 921   NORMALIZED FREE ENERGY PREDICTED BY IDOCK:   -5.29 KCAL/MOL
REMARK 922        TOTAL FREE ENERGY PREDICTED BY IDOCK:   -7.25 KCAL/MOL
REMARK 923 INTER-LIGAND FREE ENERGY PREDICTED BY IDOCK:   -6.83 KCAL/MOL
REMARK 924 INTRA-LIGAND FREE ENERGY PREDICTED BY IDOCK:   -0.42 KCAL/MOL
REMARK 927      BINDING AFFINITY PREDICTED BY RF-SCORE:    0.00 PKD
ROOT
HETATM    1  C   UNL     1     -10.785   9.775  67.693  1.00  0.00    -0.274 C  
HETATM    2  O   UNL     1     -10.923  10.861  66.795  1.00  0.00    -0.254 OA 
ENDROOT
BRANCH   2   3
HETATM    3  P   UNL     1     -11.445  12.408  67.365  1.00  0.00    -0.364 P  
HETATM    4  S   UNL     1      -9.620  13.209  67.046  1.00  0.00    -0.248 S  
BRANCH   3   5
HETATM    5  N   UNL     1     -12.351  12.525  65.921  1.00  0.00    -0.603 NA 
HETATM    6  H   UNL     1     -13.332  12.248  65.950  1.00  0.00     0.000 HD 
BRANCH   5   7
HETATM    7  C   UNL     1     -11.809  12.997  64.643  1.00  0.00    -0.372 C  
HETATM    8  C   UNL     1     -12.351  12.155  63.486  1.00  0.00    -0.682 C  
HETATM    9  C   UNL     1     -12.115  14.474  64.373  1.00  0.00    -0.492 C  
ENDBRANCH   5   7
ENDBRANCH   3   5
BRANCH   3  10
HETATM   10  O   UNL     1     -11.969  13.955  67.935  1.00  0.00    -0.363 OA 
BRANCH  10  11
HETATM   11  C   UNL     1     -12.010  14.250  69.278  1.00  0.00    -0.335 A  
HETATM   12  C   UNL     1     -12.445  13.345  70.246  1.00  0.00    -0.285 A  
HETATM   13  C   UNL     1     -12.635  13.745  71.573  1.00  0.00    -0.405 A  
HETATM   14  C   UNL     1     -12.298  15.036  71.959  1.00  0.00    -0.347 A  
HETATM   15  C   UNL     1     -11.779  15.929  71.031  1.00  0.00    -0.473 A  
HETATM   16 CL   UNL     1     -12.520  15.518  73.594  1.00  0.00    -0.635 Cl 
HETATM   17  C   UNL     1     -11.649  15.542  69.689  1.00  0.00    -0.348 A  
HETATM   18 CL   UNL     1     -11.004  16.690  68.574  1.00  0.00    -0.350 Cl 
ENDBRANCH  10  11
ENDBRANCH   3  10
ENDBRANCH   2   3
TORSDOF 5
ENDMDL
MODEL        2
REMARK 921   NORMALIZED FREE ENERGY PREDICTED BY IDOCK:   -5.13 KCAL/MOL
REMARK 922        TOTAL FREE ENERGY PREDICTED BY IDOCK:   -7.04 KCAL/MOL
REMARK 923 INTER-LIGAND FREE ENERGY PREDICTED BY IDOCK:   -6.47 KCAL/MOL
REMARK 924 INTRA-LIGAND FREE ENERGY PREDICTED BY IDOCK:   -0.57 KCAL/MOL
REMARK 927      BINDING AFFINITY PREDICTED BY RF-SCORE:    0.00 PKD
ROOT
HETATM    1  C   UNL     1     -12.452  15.716  73.892  1.00  0.00    -0.630 C  
HETATM    2  O   UNL     1     -11.509  15.559  72.848  1.00  0.00    -0.412 OA 
ENDROOT
BRANCH   2   3
HETATM    3  P   UNL     1     -11.999  14.941  71.309  1.00  0.00    -0.365 P  
HETATM    4  S   UNL     1     -13.942  15.309  71.714  1.00  0.00    -0.561 S  
BRANCH   3   5
HETATM    5  N   UNL     1     -11.307  16.348  70.632  1.00  0.00    -0.505 NA 
HETATM    6  H   UNL     1     -11.422  17.226  71.138  1.00  0.00     0.000 HD 
BRANCH   5   7
HETATM    7  C   UNL     1     -10.560  16.374  69.371  1.00  0.00    -0.317 C  
HETATM    8  C   UNL     1     -10.263  17.817  68.953  1.00  0.00    -0.345 C  
HETATM    9  C   UNL     1      -9.244  15.593  69.440  1.00  0.00    -0.279 C  
ENDBRANCH   5   7
ENDBRANCH   3   5
BRANCH   3  10
HETATM   10  O   UNL     1     -12.490  14.321  69.770  1.00  0.00    -0.323 OA 
BRANCH  10  11
HETATM   11  C   UNL     1     -12.110  13.069  69.344  1.00  0.00    -0.212 A  
HETATM   12  C   UNL     1     -11.997  11.973  70.198  1.00  0.00    -0.401 A  
HETATM   13  C   UNL     1     -11.442  10.769  69.756  1.00  0.00    -0.386 A  
HETATM   14  C   UNL     1     -11.080  10.625  68.422  1.00  0.00    -0.272 A  
HETATM   15  C   UNL     1     -11.266  11.673  67.532  1.00  0.00    -0.355 A  
HETATM   16 CL   UNL     1     -10.412   9.137  67.880  1.00  0.00    -0.291 Cl 
HETATM   17  C   UNL     1     -11.767  12.900  67.994  1.00  0.00    -0.356 A  
HETATM   18 CL   UNL     1     -11.974  14.174  66.849  1.00  0.00    -0.460 Cl 
ENDBRANCH  10  11
ENDBRANCH   3  10
ENDBRANCH   2   3
TORSDOF 5
ENDMDL
MODEL        3
REMARK 921   NORMALIZED FREE ENERGY PREDICTED BY IDOCK:   -5.11 KCAL/MOL
REMARK 922        TOTAL FREE ENERGY PREDICTED BY IDOCK:   -7.03 KCAL/MOL
REMARK 923 INTER-LIGAND FREE ENERGY PREDICTED BY IDOCK:   -6.46 KCAL/MOL
REMARK 924 INTRA-LIGAND FREE ENERGY PREDICTED BY IDOCK:   -0.57 KCAL/MOL
REMARK 927      BINDING AFFINITY PREDICTED BY RF-SCORE:    0.00 PKD
ROOT
HETATM    1  C   UNL     1     -11.469  11.963  64.259  1.00  0.00    -0.346 C  
HETATM    2  O   UNL     1     -12.295  12.347  65.344  1.00  0.00    -0.596 OA 
ENDROOT
BRANCH   2   3
HETATM    3  P   UNL     1     -11.601  12.729  66.881  1.00  0.00    -0.374 P  
HETATM    4  S   UNL     1     -10.785  10.889  67.038  1.00  0.00    -0.263 S  
BRANCH   3   5
HETATM    5  N   UNL     1     -10.514  13.737  66.031  1.00  0.00    -0.291 NA 
HETATM    6  H   UNL     1      -9.745  13.292  65.530  1.00  0.00     0.000 HD 
BRANCH   5   7
HETATM    7  C   UNL     1     -10.616  15.198  65.976  1.00  0.00    -0.322 C  
HETATM    8  C   UNL     1      -9.259  15.842  66.275  1.00  0.00    -0.372 C  
HETATM    9  C   UNL     1     -11.126  15.711  64.626  1.00  0.00    -0.387 C  
ENDBRANCH   5   7
ENDBRANCH   3   5
BRANCH   3  10
HETATM   10  O   UNL     1     -10.907  13.112  68.419  1.00  0.00    -0.244 OA 
BRANCH  10  11
HETATM   11  C   UNL     1     -11.631  13.760  69.394  1.00  0.00    -0.310 A  
HETATM   12  C   UNL     1     -11.818  15.141  69.415  1.00  0.00    -0.357 A  
HETATM   13  C   UNL     1     -12.410  15.772  70.514  1.00  0.00    -0.388 A  
HETATM   14  C   UNL     1     -12.906  15.007  71.563  1.00  0.00    -0.347 A  
HETATM   15  C   UNL     1     -12.811  13.623  71.523  1.00  0.00    -0.445 A  
HETATM   16 CL   UNL     1     -13.645  15.787  72.904  1.00  0.00    -0.660 Cl 
HETATM   17  C   UNL     1     -12.161  13.000  70.447  1.00  0.00    -0.310 A  
HETATM   18 CL   UNL     1     -12.065  11.277  70.447  1.00  0.00    -0.446 Cl 
ENDBRANCH  10  11
ENDBRANCH   3  10
ENDBRANCH   2   3
TORSDOF 5
ENDMDL
MODEL        4
REMARK 921   NORMALIZED FREE ENERGY PREDICTED BY IDOCK:   -5.09 KCAL/MOL
REMARK 922        TOTAL FREE ENERGY PREDICTED BY IDOCK:   -7.00 KCAL/MOL
REMARK 923 INTER-LIGAND FREE ENERGY PREDICTED BY IDOCK:   -6.54 KCAL/MOL
REMARK 924 INTRA-LIGAND FREE ENERGY PREDICTED BY IDOCK:   -0.46 KCAL/MOL
REMARK 927      BINDING AFFINITY PREDICTED BY RF-SCORE:    0.00 PKD
ROOT
HETATM    1  C   UNL     1      -8.812  16.208  66.676  1.00  0.00    -0.264 C  
HETATM    2  O   UNL     1      -9.496  14.999  66.956  1.00  0.00    -0.215 OA 
ENDROOT
BRANCH   2   3
HETATM    3  P   UNL     1     -10.703  14.941  68.193  1.00  0.00    -0.267 P  
HETATM    4  S   UNL     1     -10.637  16.944  68.435  1.00  0.00    -0.373 S  
BRANCH   3   5
HETATM    5  N   UNL     1     -11.819  14.578  66.951  1.00  0.00    -0.395 NA 
HETATM    6  H   UNL     1     -12.777  14.910  67.060  1.00  0.00     0.000 HD 
BRANCH   5   7
HETATM    7  C   UNL     1     -11.487  13.822  65.740  1.00  0.00    -0.318 C  
HETATM    8  C   UNL     1     -11.911  12.358  65.888  1.00  0.00    -0.467 C  
HETATM    9  C   UNL     1     -12.131  14.403  64.477  1.00  0.00    -0.498 C  
ENDBRANCH   5   7
ENDBRANCH   3   5
BRANCH   3  10
HETATM   10  O   UNL     1     -11.910  14.882  69.431  1.00  0.00    -0.298 OA 
BRANCH  10  11
HETATM   11  C   UNL     1     -12.165  13.727  70.133  1.00  0.00    -0.356 A  
HETATM   12  C   UNL     1     -11.698  12.474  69.737  1.00  0.00    -0.355 A  
HETATM   13  C   UNL     1     -12.124  11.309  70.382  1.00  0.00    -0.474 A  
HETATM   14  C   UNL     1     -12.953  11.400  71.494  1.00  0.00    -0.399 A  
HETATM   15  C   UNL     1     -13.359  12.642  71.961  1.00  0.00    -0.555 A  
HETATM   16 CL   UNL     1     -13.462   9.965  72.292  1.00  0.00    -0.478 Cl 
HETATM   17  C   UNL     1     -12.977  13.805  71.273  1.00  0.00    -0.334 A  
HETATM   18 CL   UNL     1     -13.513  15.324  71.892  1.00  0.00    -0.493 Cl 
ENDBRANCH  10  11
ENDBRANCH   3  10
ENDBRANCH   2   3
TORSDOF 5
ENDMDL
MODEL        5
REMARK 921   NORMALIZED FREE ENERGY PREDICTED BY IDOCK:   -5.02 KCAL/MOL
REMARK 922        TOTAL FREE ENERGY PREDICTED BY IDOCK:   -6.91 KCAL/MOL
REMARK 923 INTER-LIGAND FREE ENERGY PREDICTED BY IDOCK:   -6.47 KCAL/MOL
REMARK 924 INTRA-LIGAND FREE ENERGY PREDICTED BY IDOCK:   -0.44 KCAL/MOL
REMARK 927      BINDING AFFINITY PREDICTED BY RF-SCORE:    0.00 PKD
ROOT
HETATM    1  C   UNL     1     -10.045  17.895  68.829  1.00  0.00    -0.384 C  
HETATM    2  O   UNL     1     -10.702  16.978  69.687  1.00  0.00    -0.283 OA 
ENDROOT
BRANCH   2   3
HETATM    3  P   UNL     1     -10.932  15.335  69.202  1.00  0.00    -0.292 P  
HETATM    4  S   UNL     1      -9.051  15.222  68.477  1.00  0.00    -0.200 S  
BRANCH   3   5
HETATM    5  N   UNL     1     -10.900  14.941  70.864  1.00  0.00    -0.543 NA 
HETATM    6  H   UNL     1      -9.997  14.724  71.284  1.00  0.00     0.000 HD 
BRANCH   5   7
HETATM    7  C   UNL     1     -12.086  14.897  71.724  1.00  0.00    -0.360 C  
HETATM    8  C   UNL     1     -11.962  15.912  72.863  1.00  0.00    -0.609 C  
HETATM    9  C   UNL     1     -13.388  15.161  70.959  1.00  0.00    -0.504 C  
ENDBRANCH   5   7
ENDBRANCH   3   5
BRANCH   3  10
HETATM   10  O   UNL     1     -11.163  13.690  68.716  1.00  0.00    -0.252 OA 
BRANCH  10  11
HETATM   11  C   UNL     1     -11.453  13.359  67.412  1.00  0.00    -0.333 A  
HETATM   12  C   UNL     1     -12.347  14.080  66.622  1.00  0.00    -0.408 A  
HETATM   13  C   UNL     1     -12.741  13.609  65.366  1.00  0.00    -0.500 A  
HETATM   14  C   UNL     1     -12.167  12.452  64.852  1.00  0.00    -0.418 A  
HETATM   15  C   UNL     1     -11.208  11.765  65.584  1.00  0.00    -0.324 A  
HETATM   16 CL   UNL     1     -12.645  11.885  63.302  1.00  0.00    -0.635 Cl 
HETATM   17  C   UNL     1     -10.861  12.209  66.869  1.00  0.00    -0.250 A  
HETATM   18 CL   UNL     1      -9.668  11.317  67.739  1.00  0.00    -0.177 Cl 
ENDBRANCH  10  11
ENDBRANCH   3  10
ENDBRANCH   2   3
TORSDOF 5
ENDMDL
MODEL        6
REMARK 921   NORMALIZED FREE ENERGY PREDICTED BY IDOCK:   -4.98 KCAL/MOL
REMARK 922        TOTAL FREE ENERGY PREDICTED BY IDOCK:   -6.85 KCAL/MOL
REMARK 923 INTER-LIGAND FREE ENERGY PREDICTED BY IDOCK:   -6.27 KCAL/MOL
REMARK 924 INTRA-LIGAND FREE ENERGY PREDICTED BY IDOCK:   -0.58 KCAL/MOL
REMARK 927      BINDING AFFINITY PREDICTED BY RF-SCORE:    0.00 PKD
ROOT
HETATM    1  C   UNL     1     -12.198  12.490  63.690  1.00  0.00    -0.550 C  
HETATM    2  O   UNL     1     -12.834  12.570  64.953  1.00  0.00    -0.758 OA 
ENDROOT
BRANCH   2   3
HETATM    3  P   UNL     1     -11.896  12.599  66.406  1.00  0.00    -0.276 P  
HETATM    4  S   UNL     1     -10.244  11.983  65.423  1.00  0.00    -0.269 S  
BRANCH   3   5
HETATM    5  N   UNL     1     -11.983  14.302  66.313  1.00  0.00    -0.411 NA 
HETATM    6  H   UNL     1     -12.904  14.736  66.370  1.00  0.00     0.000 HD 
BRANCH   5   7
HETATM    7  C   UNL     1     -10.819  15.180  66.156  1.00  0.00    -0.330 C  
HETATM    8  C   UNL     1     -10.908  15.960  64.842  1.00  0.00    -0.420 C  
HETATM    9  C   UNL     1     -10.657  16.169  67.315  1.00  0.00    -0.305 C  
ENDBRANCH   5   7
ENDBRANCH   3   5
BRANCH   3  10
HETATM   10  O   UNL     1     -10.959  12.627  67.860  1.00  0.00    -0.215 OA 
BRANCH  10  11
HETATM   11  C   UNL     1     -11.314  11.880  68.959  1.00  0.00    -0.279 A  
HETATM   12  C   UNL     1     -10.986  10.533  69.105  1.00  0.00    -0.286 A  
HETATM   13  C   UNL     1     -11.514   9.771  70.152  1.00  0.00    -0.272 A  
HETATM   14  C   UNL     1     -12.304  10.382  71.119  1.00  0.00    -0.400 A  
HETATM   15  C   UNL     1     -12.571  11.742  71.044  1.00  0.00    -0.409 A  
HETATM   16 CL   UNL     1     -12.939   9.445  72.411  1.00  0.00    -0.457 Cl 
HETATM   17  C   UNL     1     -12.089  12.489  69.957  1.00  0.00    -0.266 A  
HETATM   18 CL   UNL     1     -12.454  14.174  69.907  1.00  0.00    -0.368 Cl 
ENDBRANCH  10  11
ENDBRANCH   3  10
ENDBRANCH   2   3
TORSDOF 5
ENDMDL
MODEL        7
REMARK 921   NORMALIZED FREE ENERGY PREDICTED BY IDOCK:   -4.96 KCAL/MOL
REMARK 922        TOTAL FREE ENERGY PREDICTED BY IDOCK:   -6.83 KCAL/MOL
REMARK 923 INTER-LIGAND FREE ENERGY PREDICTED BY IDOCK:   -6.41 KCAL/MOL
REMARK 924 INTRA-LIGAND FREE ENERGY PREDICTED BY IDOCK:   -0.42 KCAL/MOL
REMARK 927      BINDING AFFINITY PREDICTED BY RF-SCORE:    0.00 PKD
ROOT
HETATM    1  C   UNL     1     -12.017  12.312  64.443  1.00  0.00    -0.394 C  
HETATM    2  O   UNL     1     -12.647  12.730  65.641  1.00  0.00    -0.596 OA 
ENDROOT
BRANCH   2   3
HETATM    3  P   UNL     1     -11.703  13.204  67.009  1.00  0.00    -0.365 P  
HETATM    4  S   UNL     1     -10.938  11.345  67.200  1.00  0.00    -0.298 S  
BRANCH   3   5
HETATM    5  N   UNL     1     -10.731  14.082  65.912  1.00  0.00    -0.288 NA 
HETATM    6  H   UNL     1     -10.119  13.555  65.290  1.00  0.00     0.000 HD 
BRANCH   5   7
HETATM    7  C   UNL     1     -10.722  15.545  65.808  1.00  0.00    -0.353 C  
HETATM    8  C   UNL     1      -9.299  16.086  65.975  1.00  0.00    -0.380 C  
HETATM    9  C   UNL     1     -11.297  16.053  64.482  1.00  0.00    -0.303 C  
ENDBRANCH   5   7
ENDBRANCH   3   5
BRANCH   3  10
HETATM   10  O   UNL     1     -10.758  13.678  68.379  1.00  0.00    -0.244 OA 
BRANCH  10  11
HETATM   11  C   UNL     1     -11.347  14.127  69.539  1.00  0.00    -0.259 A  
HETATM   12  C   UNL     1     -12.271  13.377  70.266  1.00  0.00    -0.405 A  
HETATM   13  C   UNL     1     -12.972  13.938  71.337  1.00  0.00    -0.430 A  
HETATM   14  C   UNL     1     -12.682  15.234  71.748  1.00  0.00    -0.371 A  
HETATM   15  C   UNL     1     -11.702  15.969  71.095  1.00  0.00    -0.487 A  
HETATM   16 CL   UNL     1     -13.536  15.914  73.075  1.00  0.00    -0.665 Cl 
HETATM   17  C   UNL     1     -11.045  15.422  69.982  1.00  0.00    -0.303 A  
HETATM   18 CL   UNL     1      -9.839  16.380  69.203  1.00  0.00    -0.271 Cl 
ENDBRANCH  10  11
ENDBRANCH   3  10
ENDBRANCH   2   3
TORSDOF 5
ENDMDL
MODEL        8
REMARK 921   NORMALIZED FREE ENERGY PREDICTED BY IDOCK:   -4.96 KCAL/MOL
REMARK 922        TOTAL FREE ENERGY PREDICTED BY IDOCK:   -6.83 KCAL/MOL
REMARK 923 INTER-LIGAND FREE ENERGY PREDICTED BY IDOCK:   -6.43 KCAL/MOL
REMARK 924 INTRA-LIGAND FREE ENERGY PREDICTED BY IDOCK:   -0.40 KCAL/MOL
REMARK 927      BINDING AFFINITY PREDICTED BY RF-SCORE:    0.00 PKD
ROOT
HETATM    1  C   UNL     1      -9.662  16.284  67.570  1.00  0.00    -0.234 C  
HETATM    2  O   UNL     1      -9.779  14.897  67.830  1.00  0.00    -0.204 OA 
ENDROOT
BRANCH   2   3
HETATM    3  P   UNL     1     -10.998  14.306  68.904  1.00  0.00    -0.266 P  
HETATM    4  S   UNL     1     -11.099  16.080  69.862  1.00  0.00    -0.370 S  
BRANCH   3   5
HETATM    5  N   UNL     1     -12.060  14.349  67.566  1.00  0.00    -0.587 NA 
HETATM    6  H   UNL     1     -12.944  14.843  67.675  1.00  0.00     0.000 HD 
BRANCH   5   7
HETATM    7  C   UNL     1     -11.779  13.720  66.271  1.00  0.00    -0.376 C  
HETATM    8  C   UNL     1     -11.578  12.212  66.439  1.00  0.00    -0.429 C  
HETATM    9  C   UNL     1     -12.883  13.964  65.237  1.00  0.00    -0.437 C  
ENDBRANCH   5   7
ENDBRANCH   3   5
BRANCH   3  10
HETATM   10  O   UNL     1     -12.218  13.714  69.979  1.00  0.00    -0.330 OA 
BRANCH  10  11
HETATM   11  C   UNL     1     -12.205  12.417  70.437  1.00  0.00    -0.287 A  
HETATM   12  C   UNL     1     -11.448  11.405  69.846  1.00  0.00    -0.353 A  
HETATM   13  C   UNL     1     -11.599  10.071  70.236  1.00  0.00    -0.354 A  
HETATM   14  C   UNL     1     -12.445   9.752  71.291  1.00  0.00    -0.367 A  
HETATM   15  C   UNL     1     -13.142  10.753  71.954  1.00  0.00    -0.557 A  
HETATM   16 CL   UNL     1     -12.616   8.112  71.776  1.00  0.00    -0.339 Cl 
HETATM   17  C   UNL     1     -13.033  12.083  71.519  1.00  0.00    -0.304 A  
HETATM   18 CL   UNL     1     -13.924  13.290  72.373  1.00  0.00    -0.637 Cl 
ENDBRANCH  10  11
ENDBRANCH   3  10
ENDBRANCH   2   3
TORSDOF 5
ENDMDL
MODEL        9
REMARK 921   NORMALIZED FREE ENERGY PREDICTED BY IDOCK:   -4.92 KCAL/MOL
REMARK 922        TOTAL FREE ENERGY PREDICTED BY IDOCK:   -6.78 KCAL/MOL
REMARK 923 INTER-LIGAND FREE ENERGY PREDICTED BY IDOCK:   -6.38 KCAL/MOL
REMARK 924 INTRA-LIGAND FREE ENERGY PREDICTED BY IDOCK:   -0.41 KCAL/MOL
REMARK 927      BINDING AFFINITY PREDICTED BY RF-SCORE:    0.00 PKD
ROOT
HETATM    1  C   UNL     1     -10.205  10.626  67.046  1.00  0.00    -0.220 C  
HETATM    2  O   UNL     1     -10.006  11.427  68.196  1.00  0.00    -0.177 OA 
ENDROOT
BRANCH   2   3
HETATM    3  P   UNL     1     -11.257  12.483  68.755  1.00  0.00    -0.299 P  
HETATM    4  S   UNL     1     -11.783  12.959  66.865  1.00  0.00    -0.380 S  
BRANCH   3   5
HETATM    5  N   UNL     1     -12.105  11.074  69.219  1.00  0.00    -0.447 NA 
HETATM    6  H   UNL     1     -12.780  10.686  68.560  1.00  0.00     0.000 HD 
BRANCH   5   7
HETATM    7  C   UNL     1     -11.924  10.388  70.502  1.00  0.00    -0.334 C  
HETATM    8  C   UNL     1     -13.280  10.028  71.113  1.00  0.00    -0.441 C  
HETATM    9  C   UNL     1     -11.075   9.118  70.385  1.00  0.00    -0.293 C  
ENDBRANCH   5   7
ENDBRANCH   3   5
BRANCH   3  10
HETATM   10  O   UNL     1     -12.507  13.540  69.315  1.00  0.00    -0.179 OA 
BRANCH  10  11
HETATM   11  C   UNL     1     -12.455  14.118  70.563  1.00  0.00    -0.361 A  
HETATM   12  C   UNL     1     -13.069  13.567  71.687  1.00  0.00    -0.459 A  
HETATM   13  C   UNL     1     -13.138  14.275  72.890  1.00  0.00    -0.589 A  
HETATM   14  C   UNL     1     -12.505  15.507  73.003  1.00  0.00    -0.442 A  
HETATM   15  C   UNL     1     -11.811  16.036  71.924  1.00  0.00    -0.619 A  
HETATM   16 CL   UNL     1     -12.580  16.366  74.490  1.00  0.00    -0.489 Cl 
HETATM   17  C   UNL     1     -11.798  15.350  70.699  1.00  0.00    -0.351 A  
HETATM   18 CL   UNL     1     -10.925  16.052  69.387  1.00  0.00    -0.296 Cl 
ENDBRANCH  10  11
ENDBRANCH   3  10
ENDBRANCH   2   3
TORSDOF 5
ENDMDL
MODEL       10
REMARK 921   NORMALIZED FREE ENERGY PREDICTED BY IDOCK:   -4.92 KCAL/MOL
REMARK 922        TOTAL FREE ENERGY PREDICTED BY IDOCK:   -6.78 KCAL/MOL
REMARK 923 INTER-LIGAND FREE ENERGY PREDICTED BY IDOCK:   -6.22 KCAL/MOL
REMARK 924 INTRA-LIGAND FREE ENERGY PREDICTED BY IDOCK:   -0.56 KCAL/MOL
REMARK 927      BINDING AFFINITY PREDICTED BY RF-SCORE:    0.00 PKD
ROOT
HETATM    1  C   UNL     1      -8.787   8.313  69.564  1.00  0.00    -0.149 C  
HETATM    2  O   UNL     1      -9.675   8.808  70.551  1.00  0.00    -0.171 OA 
ENDROOT
BRANCH   2   3
HETATM    3  P   UNL     1     -10.913   9.938  70.128  1.00  0.00    -0.337 P  
HETATM    4  S   UNL     1     -10.287   9.998  68.209  1.00  0.00    -0.206 S  
BRANCH   3   5
HETATM    5  N   UNL     1     -12.017   8.646  70.301  1.00  0.00    -0.436 NA 
HETATM    6  H   UNL     1     -12.390   8.221  69.452  1.00  0.00     0.000 HD 
BRANCH   5   7
HETATM    7  C   UNL     1     -12.461   8.108  71.590  1.00  0.00    -0.319 C  
HETATM    8  C   UNL     1     -13.935   8.443  71.832  1.00  0.00    -0.483 C  
HETATM    9  C   UNL     1     -12.268   6.593  71.705  1.00  0.00    -0.400 C  
ENDBRANCH   5   7
ENDBRANCH   3   5
BRANCH   3  10
HETATM   10  O   UNL     1     -12.152  11.070  69.705  1.00  0.00    -0.317 OA 
BRANCH  10  11
HETATM   11  C   UNL     1     -12.445  12.148  70.508  1.00  0.00    -0.198 A  
HETATM   12  C   UNL     1     -13.109  12.034  71.729  1.00  0.00    -0.460 A  
HETATM   13  C   UNL     1     -13.539  13.168  72.425  1.00  0.00    -0.667 A  
HETATM   14  C   UNL     1     -13.222  14.433  71.945  1.00  0.00    -0.365 A  
HETATM   15  C   UNL     1     -12.484  14.571  70.777  1.00  0.00    -0.420 A  
HETATM   16 CL   UNL     1     -13.740  15.823  72.812  1.00  0.00    -0.664 Cl 
HETATM   17  C   UNL     1     -12.108  13.431  70.051  1.00  0.00    -0.334 A  
HETATM   18 CL   UNL     1     -11.197  13.657  68.603  1.00  0.00    -0.289 Cl 
ENDBRANCH  10  11
ENDBRANCH   3  10
ENDBRANCH   2   3
TORSDOF 5
ENDMDL
MODEL       11
REMARK 921   NORMALIZED FREE ENERGY PREDICTED BY IDOCK:   -4.90 KCAL/MOL
REMARK 922        TOTAL FREE ENERGY PREDICTED BY IDOCK:   -6.76 KCAL/MOL
REMARK 923 INTER-LIGAND FREE ENERGY PREDICTED BY IDOCK:   -6.28 KCAL/MOL
REMARK 924 INTRA-LIGAND FREE ENERGY PREDICTED BY IDOCK:   -0.47 KCAL/MOL
REMARK 927      BINDING AFFINITY PREDICTED BY RF-SCORE:    0.00 PKD
ROOT
HETATM    1  C   UNL     1      -7.007  17.454  66.192  1.00  0.00    -0.263 C  
HETATM    2  O   UNL     1      -7.963  17.738  67.198  1.00  0.00    -0.204 OA 
ENDROOT
BRANCH   2   3
HETATM    3  P   UNL     1      -9.464  16.881  67.248  1.00  0.00    -0.253 P  
HETATM    4  S   UNL     1      -8.786  15.657  68.702  1.00  0.00    -0.208 S  
BRANCH   3   5
HETATM    5  N   UNL     1     -10.126  18.278  67.976  1.00  0.00    -0.345 NA 
HETATM    6  H   UNL     1     -10.198  18.296  68.993  1.00  0.00     0.000 HD 
BRANCH   5   7
HETATM    7  C   UNL     1     -10.595  19.452  67.233  1.00  0.00    -0.486 C  
HETATM    8  C   UNL     1      -9.701  20.661  67.520  1.00  0.00    -0.509 C  
HETATM    9  C   UNL     1     -10.649  19.218  65.720  1.00  0.00    -0.450 C  
ENDBRANCH   5   7
ENDBRANCH   3   5
BRANCH   3  10
HETATM   10  O   UNL     1     -10.966  16.024  67.297  1.00  0.00    -0.300 OA 
BRANCH  10  11
HETATM   11  C   UNL     1     -11.272  15.054  66.369  1.00  0.00    -0.310 A  
HETATM   12  C   UNL     1     -11.147  15.247  64.994  1.00  0.00    -0.436 A  
HETATM   13  C   UNL     1     -11.632  14.300  64.087  1.00  0.00    -0.215 A  
HETATM   14  C   UNL     1     -12.164  13.105  64.555  1.00  0.00    -0.406 A  
HETATM   15  C   UNL     1     -12.217  12.853  65.919  1.00  0.00    -0.469 A  
HETATM   16 CL   UNL     1     -12.745  11.938  63.435  1.00  0.00    -0.655 Cl 
HETATM   17  C   UNL     1     -11.785  13.832  66.827  1.00  0.00    -0.391 A  
HETATM   18 CL   UNL     1     -11.878  13.472  68.512  1.00  0.00    -0.383 Cl 
ENDBRANCH  10  11
ENDBRANCH   3  10
ENDBRANCH   2   3
TORSDOF 5
ENDMDL
MODEL       12
REMARK 921   NORMALIZED FREE ENERGY PREDICTED BY IDOCK:   -4.90 KCAL/MOL
REMARK 922        TOTAL FREE ENERGY PREDICTED BY IDOCK:   -6.75 KCAL/MOL
REMARK 923 INTER-LIGAND FREE ENERGY PREDICTED BY IDOCK:   -6.36 KCAL/MOL
REMARK 924 INTRA-LIGAND FREE ENERGY PREDICTED BY IDOCK:   -0.39 KCAL/MOL
REMARK 927      BINDING AFFINITY PREDICTED BY RF-SCORE:    0.00 PKD
ROOT
HETATM    1  C   UNL     1     -11.639  12.119  68.684  1.00  0.00    -0.321 C  
HETATM    2  O   UNL     1     -11.821  13.177  69.607  1.00  0.00    -0.304 OA 
ENDROOT
BRANCH   2   3
HETATM    3  P   UNL     1     -11.475  14.809  69.149  1.00  0.00    -0.339 P  
HETATM    4  S   UNL     1     -11.744  14.381  67.195  1.00  0.00    -0.403 S  
BRANCH   3   5
HETATM    5  N   UNL     1     -12.988  15.218  69.830  1.00  0.00    -0.590 NA 
HETATM    6  H   UNL     1     -13.801  15.221  69.216  1.00  0.00     0.000 HD 
BRANCH   5   7
HETATM    7  C   UNL     1     -13.190  15.563  71.241  1.00  0.00    -0.515 C  
HETATM    8  C   UNL     1     -13.932  14.438  71.967  1.00  0.00    -0.592 C  
HETATM    9  C   UNL     1     -11.880  15.856  71.978  1.00  0.00    -0.609 C  
ENDBRANCH   5   7
ENDBRANCH   3   5
BRANCH   3  10
HETATM   10  O   UNL     1     -11.129  16.441  68.692  1.00  0.00    -0.338 OA 
BRANCH  10  11
HETATM   11  C   UNL     1      -9.836  16.906  68.609  1.00  0.00    -0.270 A  
HETATM   12  C   UNL     1      -8.734  16.182  69.061  1.00  0.00    -0.254 A  
HETATM   13  C   UNL     1      -7.463  16.764  69.117  1.00  0.00    -0.196 A  
HETATM   14  C   UNL     1      -7.272  18.051  68.630  1.00  0.00    -0.273 A  
HETATM   15  C   UNL     1      -8.338  18.759  68.093  1.00  0.00    -0.334 A  
HETATM   16 CL   UNL     1      -5.705  18.755  68.688  1.00  0.00    -0.200 Cl 
HETATM   17  C   UNL     1      -9.623  18.194  68.095  1.00  0.00    -0.307 A  
HETATM   18 CL   UNL     1     -10.915  19.117  67.422  1.00  0.00    -0.516 Cl 
ENDBRANCH  10  11
ENDBRANCH   3  10
ENDBRANCH   2   3
TORSDOF 5
ENDMDL
MODEL       13
REMARK 921   NORMALIZED FREE ENERGY PREDICTED BY IDOCK:   -4.89 KCAL/MOL
REMARK 922        TOTAL FREE ENERGY PREDICTED BY IDOCK:   -6.74 KCAL/MOL
REMARK 923 INTER-LIGAND FREE ENERGY PREDICTED BY IDOCK:   -6.23 KCAL/MOL
REMARK 924 INTRA-LIGAND FREE ENERGY PREDICTED BY IDOCK:   -0.51 KCAL/MOL
REMARK 927      BINDING AFFINITY PREDICTED BY RF-SCORE:    0.00 PKD
ROOT
HETATM    1  C   UNL     1     -11.823  14.569  64.998  1.00  0.00    -0.399 C  
HETATM    2  O   UNL     1     -12.575  14.044  66.077  1.00  0.00    -0.481 OA 
ENDROOT
BRANCH   2   3
HETATM    3  P   UNL     1     -11.777  13.369  67.454  1.00  0.00    -0.368 P  
HETATM    4  S   UNL     1      -9.968  13.577  66.584  1.00  0.00    -0.289 S  
BRANCH   3   5
HETATM    5  N   UNL     1     -12.162  14.821  68.267  1.00  0.00    -0.591 NA 
HETATM    6  H   UNL     1     -13.048  15.273  68.041  1.00  0.00     0.000 HD 
BRANCH   5   7
HETATM    7  C   UNL     1     -11.301  15.459  69.268  1.00  0.00    -0.315 C  
HETATM    8  C   UNL     1     -10.675  16.736  68.702  1.00  0.00    -0.352 C  
HETATM    9  C   UNL     1     -12.043  15.799  70.565  1.00  0.00    -0.407 C  
ENDBRANCH   5   7
ENDBRANCH   3   5
BRANCH   3  10
HETATM   10  O   UNL     1     -10.980  12.693  68.833  1.00  0.00    -0.241 OA 
BRANCH  10  11
HETATM   11  C   UNL     1     -11.624  11.821  69.681  1.00  0.00    -0.323 A  
HETATM   12  C   UNL     1     -12.512  12.236  70.673  1.00  0.00    -0.323 A  
HETATM   13  C   UNL     1     -13.007  11.335  71.620  1.00  0.00    -0.537 A  
HETATM   14  C   UNL     1     -12.687   9.986  71.522  1.00  0.00    -0.429 A  
HETATM   15  C   UNL     1     -11.875   9.535  70.490  1.00  0.00    -0.246 A  
HETATM   16 CL   UNL     1     -13.309   8.880  72.682  1.00  0.00    -0.447 Cl 
HETATM   17  C   UNL     1     -11.332  10.453  69.578  1.00  0.00    -0.265 A  
HETATM   18 CL   UNL     1     -10.325   9.842  68.317  1.00  0.00    -0.218 Cl 
ENDBRANCH  10  11
ENDBRANCH   3  10
ENDBRANCH   2   3
TORSDOF 5
ENDMDL
MODEL       14
REMARK 921   NORMALIZED FREE ENERGY PREDICTED BY IDOCK:   -4.89 KCAL/MOL
REMARK 922        TOTAL FREE ENERGY PREDICTED BY IDOCK:   -6.74 KCAL/MOL
REMARK 923 INTER-LIGAND FREE ENERGY PREDICTED BY IDOCK:   -6.25 KCAL/MOL
REMARK 924 INTRA-LIGAND FREE ENERGY PREDICTED BY IDOCK:   -0.49 KCAL/MOL
REMARK 927      BINDING AFFINITY PREDICTED BY RF-SCORE:    0.00 PKD
ROOT
HETATM    1  C   UNL     1      -7.976  16.435  66.586  1.00  0.00    -0.288 C  
HETATM    2  O   UNL     1      -8.597  15.163  66.541  1.00  0.00    -0.270 OA 
ENDROOT
BRANCH   2   3
HETATM    3  P   UNL     1     -10.135  14.912  67.290  1.00  0.00    -0.238 P  
HETATM    4  S   UNL     1     -10.367  16.891  67.615  1.00  0.00    -0.325 S  
BRANCH   3   5
HETATM    5  N   UNL     1     -10.726  14.544  65.729  1.00  0.00    -0.301 NA 
HETATM    6  H   UNL     1     -10.806  15.308  65.058  1.00  0.00     0.000 HD 
BRANCH   5   7
HETATM    7  C   UNL     1     -11.123  13.202  65.293  1.00  0.00    -0.283 C  
HETATM    8  C   UNL     1     -12.644  13.113  65.149  1.00  0.00    -0.525 C  
HETATM    9  C   UNL     1     -10.470  12.785  63.971  1.00  0.00    -0.433 C  
ENDBRANCH   5   7
ENDBRANCH   3   5
BRANCH   3  10
HETATM   10  O   UNL     1     -11.675  14.661  68.039  1.00  0.00    -0.330 OA 
BRANCH  10  11
HETATM   11  C   UNL     1     -11.867  13.669  68.973  1.00  0.00    -0.352 A  
HETATM   12  C   UNL     1     -11.600  12.323  68.723  1.00  0.00    -0.380 A  
HETATM   13  C   UNL     1     -11.973  11.333  69.638  1.00  0.00    -0.423 A  
HETATM   14  C   UNL     1     -12.534  11.695  70.856  1.00  0.00    -0.341 A  
HETATM   15  C   UNL     1     -12.727  13.035  71.164  1.00  0.00    -0.372 A  
HETATM   16 CL   UNL     1     -12.977  10.475  71.982  1.00  0.00    -0.547 Cl 
HETATM   17  C   UNL     1     -12.407  14.021  70.218  1.00  0.00    -0.358 A  
HETATM   18 CL   UNL     1     -12.672  15.671  70.647  1.00  0.00    -0.484 Cl 
ENDBRANCH  10  11
ENDBRANCH   3  10
ENDBRANCH   2   3
TORSDOF 5
ENDMDL
MODEL       15
REMARK 921   NORMALIZED FREE ENERGY PREDICTED BY IDOCK:   -4.87 KCAL/MOL
REMARK 922        TOTAL FREE ENERGY PREDICTED BY IDOCK:   -6.71 KCAL/MOL
REMARK 923 INTER-LIGAND FREE ENERGY PREDICTED BY IDOCK:   -6.26 KCAL/MOL
REMARK 924 INTRA-LIGAND FREE ENERGY PREDICTED BY IDOCK:   -0.46 KCAL/MOL
REMARK 927      BINDING AFFINITY PREDICTED BY RF-SCORE:    0.00 PKD
ROOT
HETATM    1  C   UNL     1     -11.936  11.184  69.645  1.00  0.00    -0.359 C  
HETATM    2  O   UNL     1     -12.193  11.525  68.294  1.00  0.00    -0.561 OA 
ENDROOT
BRANCH   2   3
HETATM    3  P   UNL     1     -11.219  12.702  67.486  1.00  0.00    -0.328 P  
HETATM    4  S   UNL     1      -9.541  11.630  67.818  1.00  0.00    -0.182 S  
BRANCH   3   5
HETATM    5  N   UNL     1     -11.936  12.157  66.034  1.00  0.00    -0.585 NA 
HETATM    6  H   UNL     1     -12.830  11.671  66.098  1.00  0.00     0.000 HD 
BRANCH   5   7
HETATM    7  C   UNL     1     -11.348  12.343  64.704  1.00  0.00    -0.315 C  
HETATM    8  C   UNL     1     -10.499  11.129  64.318  1.00  0.00    -0.427 C  
HETATM    9  C   UNL     1     -12.399  12.585  63.615  1.00  0.00    -0.618 C  
ENDBRANCH   5   7
ENDBRANCH   3   5
BRANCH   3  10
HETATM   10  O   UNL     1     -10.244  13.881  66.678  1.00  0.00    -0.266 OA 
BRANCH  10  11
HETATM   11  C   UNL     1     -10.054  15.139  67.202  1.00  0.00    -0.239 A  
HETATM   12  C   UNL     1      -9.556  15.365  68.484  1.00  0.00    -0.201 A  
HETATM   13  C   UNL     1      -9.543  16.649  69.037  1.00  0.00    -0.246 A  
HETATM   14  C   UNL     1      -9.945  17.735  68.268  1.00  0.00    -0.355 A  
HETATM   15  C   UNL     1     -10.361  17.545  66.958  1.00  0.00    -0.324 A  
HETATM   16 CL   UNL     1      -9.915  19.313  68.948  1.00  0.00    -0.502 Cl 
HETATM   17  C   UNL     1     -10.430  16.247  66.429  1.00  0.00    -0.294 A  
HETATM   18 CL   UNL     1     -10.958  16.065  64.796  1.00  0.00    -0.456 Cl 
ENDBRANCH  10  11
ENDBRANCH   3  10
ENDBRANCH   2   3
TORSDOF 5
ENDMDL
MODEL       16
REMARK 921   NORMALIZED FREE ENERGY PREDICTED BY IDOCK:   -4.81 KCAL/MOL
REMARK 922        TOTAL FREE ENERGY PREDICTED BY IDOCK:   -6.63 KCAL/MOL
REMARK 923 INTER-LIGAND FREE ENERGY PREDICTED BY IDOCK:   -6.09 KCAL/MOL
REMARK 924 INTRA-LIGAND FREE ENERGY PREDICTED BY IDOCK:   -0.55 KCAL/MOL
REMARK 927      BINDING AFFINITY PREDICTED BY RF-SCORE:    0.00 PKD
ROOT
HETATM    1  C   UNL     1     -10.814  11.850  63.473  1.00  0.00    -0.434 C  
HETATM    2  O   UNL     1     -11.682  12.170  64.545  1.00  0.00    -0.345 OA 
ENDROOT
BRANCH   2   3
HETATM    3  P   UNL     1     -11.076  12.280  66.161  1.00  0.00    -0.341 P  
HETATM    4  S   UNL     1      -9.988  10.595  65.932  1.00  0.00    -0.267 S  
BRANCH   3   5
HETATM    5  N   UNL     1     -10.146  13.607  65.618  1.00  0.00    -0.355 NA 
HETATM    6  H   UNL     1      -9.294  13.408  65.093  1.00  0.00     0.000 HD 
BRANCH   5   7
HETATM    7  C   UNL     1     -10.494  15.011  65.857  1.00  0.00    -0.328 C  
HETATM    8  C   UNL     1      -9.242  15.824  66.196  1.00  0.00    -0.385 C  
HETATM    9  C   UNL     1     -11.205  15.661  64.665  1.00  0.00    -0.380 C  
ENDBRANCH   5   7
ENDBRANCH   3   5
BRANCH   3  10
HETATM   10  O   UNL     1     -10.470  12.391  67.778  1.00  0.00    -0.211 OA 
BRANCH  10  11
HETATM   11  C   UNL     1     -11.297  12.685  68.837  1.00  0.00    -0.297 A  
HETATM   12  C   UNL     1     -11.746  13.974  69.121  1.00  0.00    -0.375 A  
HETATM   13  C   UNL     1     -12.439  14.252  70.303  1.00  0.00    -0.422 A  
HETATM   14  C   UNL     1     -12.770  13.216  71.168  1.00  0.00    -0.300 A  
HETATM   15  C   UNL     1     -12.411  11.911  70.863  1.00  0.00    -0.397 A  
HETATM   16 CL   UNL     1     -13.635  13.562  72.613  1.00  0.00    -0.644 Cl 
HETATM   17  C   UNL     1     -11.662  11.646  69.706  1.00  0.00    -0.352 A  
HETATM   18 CL   UNL     1     -11.236  10.007  69.374  1.00  0.00    -0.253 Cl 
ENDBRANCH  10  11
ENDBRANCH   3  10
ENDBRANCH   2   3
TORSDOF 5
ENDMDL
MODEL       17
REMARK 921   NORMALIZED FREE ENERGY PREDICTED BY IDOCK:   -4.81 KCAL/MOL
REMARK 922        TOTAL FREE ENERGY PREDICTED BY IDOCK:   -6.63 KCAL/MOL
REMARK 923 INTER-LIGAND FREE ENERGY PREDICTED BY IDOCK:   -6.16 KCAL/MOL
REMARK 924 INTRA-LIGAND FREE ENERGY PREDICTED BY IDOCK:   -0.47 KCAL/MOL
REMARK 927      BINDING AFFINITY PREDICTED BY RF-SCORE:    0.00 PKD
ROOT
HETATM    1  C   UNL     1      -9.267   8.580  70.647  1.00  0.00    -0.163 C  
HETATM    2  O   UNL     1     -10.051   9.759  70.600  1.00  0.00    -0.272 OA 
ENDROOT
BRANCH   2   3
HETATM    3  P   UNL     1     -10.849  10.223  69.138  1.00  0.00    -0.253 P  
HETATM    4  S   UNL     1     -10.293   8.513  68.221  1.00  0.00    -0.177 S  
BRANCH   3   5
HETATM    5  N   UNL     1     -12.318   9.945  69.966  1.00  0.00    -0.481 NA 
HETATM    6  H   UNL     1     -13.101   9.567  69.433  1.00  0.00     0.000 HD 
BRANCH   5   7
HETATM    7  C   UNL     1     -12.524  10.214  71.392  1.00  0.00    -0.423 C  
HETATM    8  C   UNL     1     -12.934  11.673  71.609  1.00  0.00    -0.483 C  
HETATM    9  C   UNL     1     -13.577   9.300  72.027  1.00  0.00    -0.519 C  
ENDBRANCH   5   7
ENDBRANCH   3   5
BRANCH   3  10
HETATM   10  O   UNL     1     -11.648  10.688  67.675  1.00  0.00    -0.492 OA 
BRANCH  10  11
HETATM   11  C   UNL     1     -11.441  11.923  67.104  1.00  0.00    -0.319 A  
HETATM   12  C   UNL     1     -11.768  13.122  67.738  1.00  0.00    -0.401 A  
HETATM   13  C   UNL     1     -11.704  14.339  67.055  1.00  0.00    -0.427 A  
HETATM   14  C   UNL     1     -11.219  14.375  65.753  1.00  0.00    -0.326 A  
HETATM   15  C   UNL     1     -10.803  13.205  65.131  1.00  0.00    -0.321 A  
HETATM   16 CL   UNL     1     -11.128  15.877  64.922  1.00  0.00    -0.434 Cl 
HETATM   17  C   UNL     1     -10.928  11.978  65.801  1.00  0.00    -0.307 A  
HETATM   18 CL   UNL     1     -10.402  10.552  64.982  1.00  0.00    -0.365 Cl 
ENDBRANCH  10  11
ENDBRANCH   3  10
ENDBRANCH   2   3
TORSDOF 5
ENDMDL
MODEL       18
REMARK 921   NORMALIZED FREE ENERGY PREDICTED BY IDOCK:   -4.77 KCAL/MOL
REMARK 922        TOTAL FREE ENERGY PREDICTED BY IDOCK:   -6.58 KCAL/MOL
REMARK 923 INTER-LIGAND FREE ENERGY PREDICTED BY IDOCK:   -6.19 KCAL/MOL
REMARK 924 INTRA-LIGAND FREE ENERGY PREDICTED BY IDOCK:   -0.39 KCAL/MOL
REMARK 927      BINDING AFFINITY PREDICTED BY RF-SCORE:    0.00 PKD
ROOT
HETATM    1  C   UNL     1     -10.658   7.268  73.563  1.00  0.00    -0.362 C  
HETATM    2  O   UNL     1     -11.720   7.231  72.627  1.00  0.00    -0.253 OA 
ENDROOT
BRANCH   2   3
HETATM    3  P   UNL     1     -11.886   8.478  71.441  1.00  0.00    -0.319 P  
HETATM    4  S   UNL     1      -9.956   9.026  71.659  1.00  0.00    -0.255 S  
BRANCH   3   5
HETATM    5  N   UNL     1     -11.969   7.227  70.280  1.00  0.00    -0.551 NA 
HETATM    6  H   UNL     1     -12.892   6.882  70.016  1.00  0.00     0.000 HD 
BRANCH   5   7
HETATM    7  C   UNL     1     -10.800   6.619  69.638  1.00  0.00    -0.286 C  
HETATM    8  C   UNL     1     -10.530   5.229  70.221  1.00  0.00    -0.332 C  
HETATM    9  C   UNL     1     -10.945   6.503  68.117  1.00  0.00    -0.365 C  
ENDBRANCH   5   7
ENDBRANCH   3   5
BRANCH   3  10
HETATM   10  O   UNL     1     -12.054   9.725  70.253  1.00  0.00    -0.172 OA 
BRANCH  10  11
HETATM   11  C   UNL     1     -12.287  11.033  70.612  1.00  0.00    -0.386 A  
HETATM   12  C   UNL     1     -13.032  11.396  71.733  1.00  0.00    -0.519 A  
HETATM   13  C   UNL     1     -13.389  12.729  71.961  1.00  0.00    -0.565 A  
HETATM   14  C   UNL     1     -12.919  13.723  71.111  1.00  0.00    -0.298 A  
HETATM   15  C   UNL     1     -12.101  13.396  70.039  1.00  0.00    -0.404 A  
HETATM   16 CL   UNL     1     -13.348  15.362  71.404  1.00  0.00    -0.560 Cl 
HETATM   17  C   UNL     1     -11.796  12.050  69.780  1.00  0.00    -0.331 A  
HETATM   18 CL   UNL     1     -10.780  11.695  68.431  1.00  0.00    -0.231 Cl 
ENDBRANCH  10  11
ENDBRANCH   3  10
ENDBRANCH   2   3
TORSDOF 5
ENDMDL
MODEL       19
REMARK 921   NORMALIZED FREE ENERGY PREDICTED BY IDOCK:   -4.76 KCAL/MOL
REMARK 922        TOTAL FREE ENERGY PREDICTED BY IDOCK:   -6.58 KCAL/MOL
REMARK 923 INTER-LIGAND FREE ENERGY PREDICTED BY IDOCK:   -6.12 KCAL/MOL
REMARK 924 INTRA-LIGAND FREE ENERGY PREDICTED BY IDOCK:   -0.45 KCAL/MOL
REMARK 927      BINDING AFFINITY PREDICTED BY RF-SCORE:    0.00 PKD
ROOT
HETATM    1  C   UNL     1     -12.553  13.907  66.013  1.00  0.00    -0.423 C  
HETATM    2  O   UNL     1     -11.887  12.733  66.442  1.00  0.00    -0.382 OA 
ENDROOT
BRANCH   2   3
HETATM    3  P   UNL     1     -11.652  12.424  68.127  1.00  0.00    -0.344 P  
HETATM    4  S   UNL     1      -9.647  12.551  67.932  1.00  0.00    -0.211 S  
BRANCH   3   5
HETATM    5  N   UNL     1     -12.273  13.992  68.401  1.00  0.00    -0.541 NA 
HETATM    6  H   UNL     1     -13.078  14.289  67.849  1.00  0.00     0.000 HD 
BRANCH   5   7
HETATM    7  C   UNL     1     -11.724  14.937  69.378  1.00  0.00    -0.319 C  
HETATM    8  C   UNL     1     -11.193  16.189  68.675  1.00  0.00    -0.369 C  
HETATM    9  C   UNL     1     -12.744  15.356  70.442  1.00  0.00    -0.407 C  
ENDBRANCH   5   7
ENDBRANCH   3   5
BRANCH   3  10
HETATM   10  O   UNL     1     -11.418  12.115  69.813  1.00  0.00    -0.260 OA 
BRANCH  10  11
HETATM   11  C   UNL     1     -11.623  10.865  70.351  1.00  0.00    -0.323 A  
HETATM   12  C   UNL     1     -10.921   9.732  69.939  1.00  0.00    -0.299 A  
HETATM   13  C   UNL     1     -11.283   8.458  70.387  1.00  0.00    -0.220 A  
HETATM   14  C   UNL     1     -12.295   8.320  71.329  1.00  0.00    -0.263 A  
HETATM   15  C   UNL     1     -12.949   9.442  71.821  1.00  0.00    -0.484 A  
HETATM   16 CL   UNL     1     -12.726   6.753  71.887  1.00  0.00    -0.356 Cl 
HETATM   17  C   UNL     1     -12.623  10.713  71.322  1.00  0.00    -0.427 A  
HETATM   18 CL   UNL     1     -13.468  12.075  71.961  1.00  0.00    -0.493 Cl 
ENDBRANCH  10  11
ENDBRANCH   3  10
ENDBRANCH   2   3
TORSDOF 5
ENDMDL
MODEL       20
REMARK 921   NORMALIZED FREE ENERGY PREDICTED BY IDOCK:   -4.76 KCAL/MOL
REMARK 922        TOTAL FREE ENERGY PREDICTED BY IDOCK:   -6.57 KCAL/MOL
REMARK 923 INTER-LIGAND FREE ENERGY PREDICTED BY IDOCK:   -6.00 KCAL/MOL
REMARK 924 INTRA-LIGAND FREE ENERGY PREDICTED BY IDOCK:   -0.57 KCAL/MOL
REMARK 927      BINDING AFFINITY PREDICTED BY RF-SCORE:    0.00 PKD
ROOT
HETATM    1  C   UNL     1     -10.471  18.865  66.005  1.00  0.00    -0.446 C  
HETATM    2  O   UNL     1     -10.517  17.511  65.592  1.00  0.00    -0.588 OA 
ENDROOT
BRANCH   2   3
HETATM    3  P   UNL     1     -10.369  16.236  66.751  1.00  0.00    -0.266 P  
HETATM    4  S   UNL     1     -10.739  14.834  65.346  1.00  0.00    -0.402 S  
BRANCH   3   5
HETATM    5  N   UNL     1      -8.694  16.570  66.760  1.00  0.00    -0.205 NA 
HETATM    6  H   UNL     1      -8.233  16.718  65.863  1.00  0.00     0.000 HD 
BRANCH   5   7
HETATM    7  C   UNL     1      -7.878  16.658  67.975  1.00  0.00    -0.170 C  
HETATM    8  C   UNL     1      -6.442  16.211  67.690  1.00  0.00    -0.190 C  
HETATM    9  C   UNL     1      -7.852  18.067  68.576  1.00  0.00    -0.310 C  
ENDBRANCH   5   7
ENDBRANCH   3   5
BRANCH   3  10
HETATM   10  O   UNL     1     -10.222  14.961  67.911  1.00  0.00    -0.226 OA 
BRANCH  10  11
HETATM   11  C   UNL     1     -10.956  14.959  69.075  1.00  0.00    -0.245 A  
HETATM   12  C   UNL     1     -10.975  16.029  69.968  1.00  0.00    -0.365 A  
HETATM   13  C   UNL     1     -11.594  15.916  71.216  1.00  0.00    -0.509 A  
HETATM   14  C   UNL     1     -12.282  14.753  71.542  1.00  0.00    -0.347 A  
HETATM   15  C   UNL     1     -12.352  13.706  70.633  1.00  0.00    -0.440 A  
HETATM   16 CL   UNL     1     -13.052  14.623  73.073  1.00  0.00    -0.586 Cl 
HETATM   17  C   UNL     1     -11.677  13.802  69.406  1.00  0.00    -0.325 A  
HETATM   18 CL   UNL     1     -11.791  12.472  68.313  1.00  0.00    -0.381 Cl 
ENDBRANCH  10  11
ENDBRANCH   3  10
ENDBRANCH   2   3
TORSDOF 5
ENDMDL
MODEL       21
REMARK 921   NORMALIZED FREE ENERGY PREDICTED BY IDOCK:   -4.75 KCAL/MOL
REMARK 922        TOTAL FREE ENERGY PREDICTED BY IDOCK:   -6.56 KCAL/MOL
REMARK 923 INTER-LIGAND FREE ENERGY PREDICTED BY IDOCK:   -6.07 KCAL/MOL
REMARK 924 INTRA-LIGAND FREE ENERGY PREDICTED BY IDOCK:   -0.49 KCAL/MOL
REMARK 927      BINDING AFFINITY PREDICTED BY RF-SCORE:    0.00 PKD
ROOT
HETATM    1  C   UNL     1     -12.810  15.955  73.683  1.00  0.00    -0.599 C  
HETATM    2  O   UNL     1     -11.861  15.397  72.792  1.00  0.00    -0.417 OA 
ENDROOT
BRANCH   2   3
HETATM    3  P   UNL     1     -12.320  14.142  71.694  1.00  0.00    -0.097 P  
HETATM    4  S   UNL     1     -14.124  14.993  71.383  1.00  0.00    -0.472 S  
BRANCH   3   5
HETATM    5  N   UNL     1     -11.200  14.824  70.599  1.00  0.00    -0.477 NA 
HETATM    6  H   UNL     1     -10.217  14.575  70.707  1.00  0.00     0.000 HD 
BRANCH   5   7
HETATM    7  C   UNL     1     -11.562  15.742  69.515  1.00  0.00    -0.363 C  
HETATM    8  C   UNL     1     -10.553  16.889  69.424  1.00  0.00    -0.292 C  
HETATM    9  C   UNL     1     -11.655  15.049  68.151  1.00  0.00    -0.360 C  
ENDBRANCH   5   7
ENDBRANCH   3   5
BRANCH   3  10
HETATM   10  O   UNL     1     -12.780  12.886  70.597  1.00  0.00    -0.201 OA 
BRANCH  10  11
HETATM   11  C   UNL     1     -12.592  11.558  70.904  1.00  0.00    -0.341 A  
HETATM   12  C   UNL     1     -13.322  10.890  71.886  1.00  0.00    -0.429 A  
HETATM   13  C   UNL     1     -12.979   9.594  72.283  1.00  0.00    -0.440 A  
HETATM   14  C   UNL     1     -11.955   8.921  71.629  1.00  0.00    -0.345 A  
HETATM   15  C   UNL     1     -11.271   9.533  70.587  1.00  0.00    -0.364 A  
HETATM   16 CL   UNL     1     -11.547   7.322  72.111  1.00  0.00    -0.309 Cl 
HETATM   17  C   UNL     1     -11.579  10.856  70.234  1.00  0.00    -0.334 A  
HETATM   18 CL   UNL     1     -10.697  11.573  68.936  1.00  0.00    -0.233 Cl 
ENDBRANCH  10  11
ENDBRANCH   3  10
ENDBRANCH   2   3
TORSDOF 5
ENDMDL
MODEL       22
REMARK 921   NORMALIZED FREE ENERGY PREDICTED BY IDOCK:   -4.75 KCAL/MOL
REMARK 922        TOTAL FREE ENERGY PREDICTED BY IDOCK:   -6.56 KCAL/MOL
REMARK 923 INTER-LIGAND FREE ENERGY PREDICTED BY IDOCK:   -6.12 KCAL/MOL
REMARK 924 INTRA-LIGAND FREE ENERGY PREDICTED BY IDOCK:   -0.44 KCAL/MOL
REMARK 927      BINDING AFFINITY PREDICTED BY RF-SCORE:    0.00 PKD
ROOT
HETATM    1  C   UNL     1      -9.532  15.661  66.949  1.00  0.00    -0.229 C  
HETATM    2  O   UNL     1      -9.434  14.507  66.133  1.00  0.00    -0.294 OA 
ENDROOT
BRANCH   2   3
HETATM    3  P   UNL     1     -10.440  13.133  66.434  1.00  0.00    -0.292 P  
HETATM    4  S   UNL     1     -12.102  14.278  66.453  1.00  0.00    -0.382 S  
BRANCH   3   5
HETATM    5  N   UNL     1     -10.118  12.666  64.823  1.00  0.00    -0.452 NA 
HETATM    6  H   UNL     1      -9.410  13.189  64.308  1.00  0.00     0.000 HD 
BRANCH   5   7
HETATM    7  C   UNL     1     -10.793  11.563  64.133  1.00  0.00    -0.372 C  
HETATM    8  C   UNL     1     -12.063  12.061  63.438  1.00  0.00    -0.597 C  
HETATM    9  C   UNL     1      -9.899  10.866  63.102  1.00  0.00    -0.392 C  
ENDBRANCH   5   7
ENDBRANCH   3   5
BRANCH   3  10
HETATM   10  O   UNL     1     -11.445  11.758  66.736  1.00  0.00    -0.401 OA 
BRANCH  10  11
HETATM   11  C   UNL     1     -11.398  11.081  67.933  1.00  0.00    -0.311 A  
HETATM   12  C   UNL     1     -11.927  11.590  69.119  1.00  0.00    -0.386 A  
HETATM   13  C   UNL     1     -11.704  10.948  70.341  1.00  0.00    -0.444 A  
HETATM   14  C   UNL     1     -11.024   9.736  70.370  1.00  0.00    -0.312 A  
HETATM   15  C   UNL     1     -10.566   9.165  69.191  1.00  0.00    -0.224 A  
HETATM   16 CL   UNL     1     -10.765   8.945  71.873  1.00  0.00    -0.423 Cl 
HETATM   17  C   UNL     1     -10.740   9.844  67.974  1.00  0.00    -0.248 A  
HETATM   18 CL   UNL     1     -10.147   9.094  66.537  1.00  0.00    -0.359 Cl 
ENDBRANCH  10  11
ENDBRANCH   3  10
ENDBRANCH   2   3
TORSDOF 5
ENDMDL
MODEL       23
REMARK 921   NORMALIZED FREE ENERGY PREDICTED BY IDOCK:   -4.74 KCAL/MOL
REMARK 922        TOTAL FREE ENERGY PREDICTED BY IDOCK:   -6.54 KCAL/MOL
REMARK 923 INTER-LIGAND FREE ENERGY PREDICTED BY IDOCK:   -6.30 KCAL/MOL
REMARK 924 INTRA-LIGAND FREE ENERGY PREDICTED BY IDOCK:   -0.24 KCAL/MOL
REMARK 927      BINDING AFFINITY PREDICTED BY RF-SCORE:    0.00 PKD
ROOT
HETATM    1  C   UNL     1      -8.488   9.212  69.449  1.00  0.00    -0.130 C  
HETATM    2  O   UNL     1      -9.523  10.021  69.979  1.00  0.00    -0.224 OA 
ENDROOT
BRANCH   2   3
HETATM    3  P   UNL     1     -10.787  10.608  68.955  1.00  0.00    -0.271 P  
HETATM    4  S   UNL     1     -10.200   9.409  67.441  1.00  0.00    -0.256 S  
BRANCH   3   5
HETATM    5  N   UNL     1     -11.867   9.738  69.953  1.00  0.00    -0.455 NA 
HETATM    6  H   UNL     1     -12.512   9.088  69.503  1.00  0.00     0.000 HD 
BRANCH   5   7
HETATM    7  C   UNL     1     -11.926   9.866  71.412  1.00  0.00    -0.404 C  
HETATM    8  C   UNL     1     -13.037  10.835  71.821  1.00  0.00    -0.573 C  
HETATM    9  C   UNL     1     -12.146   8.525  72.121  1.00  0.00    -0.449 C  
ENDBRANCH   5   7
ENDBRANCH   3   5
BRANCH   3  10
HETATM   10  O   UNL     1     -12.052  11.197  67.931  1.00  0.00    -0.627 OA 
BRANCH  10  11
HETATM   11  C   UNL     1     -11.886  12.323  67.158  1.00  0.00    -0.258 A  
HETATM   12  C   UNL     1     -11.653  12.279  65.784  1.00  0.00    -0.443 A  
HETATM   13  C   UNL     1     -11.318  13.435  65.072  1.00  0.00    -0.330 A  
HETATM   14  C   UNL     1     -11.307  14.664  65.719  1.00  0.00    -0.340 A  
HETATM   15  C   UNL     1     -11.624  14.745  67.069  1.00  0.00    -0.352 A  
HETATM   16 CL   UNL     1     -10.910  16.084  64.836  1.00  0.00    -0.456 Cl 
HETATM   17  C   UNL     1     -11.899  13.574  67.791  1.00  0.00    -0.362 A  
HETATM   18 CL   UNL     1     -12.281  13.728  69.467  1.00  0.00    -0.372 Cl 
ENDBRANCH  10  11
ENDBRANCH   3  10
ENDBRANCH   2   3
TORSDOF 5
ENDMDL
MODEL       24
REMARK 921   NORMALIZED FREE ENERGY PREDICTED BY IDOCK:   -4.73 KCAL/MOL
REMARK 922        TOTAL FREE ENERGY PREDICTED BY IDOCK:   -6.53 KCAL/MOL
REMARK 923 INTER-LIGAND FREE ENERGY PREDICTED BY IDOCK:   -5.98 KCAL/MOL
REMARK 924 INTRA-LIGAND FREE ENERGY PREDICTED BY IDOCK:   -0.55 KCAL/MOL
REMARK 927      BINDING AFFINITY PREDICTED BY RF-SCORE:    0.00 PKD
ROOT
HETATM    1  C   UNL     1     -11.407   6.220  69.813  1.00  0.00    -0.436 C  
HETATM    2  O   UNL     1     -12.119   6.605  70.975  1.00  0.00    -0.369 OA 
ENDROOT
BRANCH   2   3
HETATM    3  P   UNL     1     -12.328   8.278  71.360  1.00  0.00    -0.241 P  
HETATM    4  S   UNL     1     -14.314   8.031  71.623  1.00  0.00    -0.470 S  
BRANCH   3   5
HETATM    5  N   UNL     1     -11.536   7.937  72.835  1.00  0.00    -0.586 NA 
HETATM    6  H   UNL     1     -12.111   7.665  73.632  1.00  0.00     0.000 HD 
BRANCH   5   7
HETATM    7  C   UNL     1     -10.085   8.011  73.028  1.00  0.00    -0.281 C  
HETATM    8  C   UNL     1      -9.522   6.636  73.397  1.00  0.00    -0.163 C  
HETATM    9  C   UNL     1      -9.344   8.539  71.795  1.00  0.00    -0.323 C  
ENDBRANCH   5   7
ENDBRANCH   3   5
BRANCH   3  10
HETATM   10  O   UNL     1     -12.536   9.952  71.744  1.00  0.00    -0.378 OA 
BRANCH  10  11
HETATM   11  C   UNL     1     -12.294  10.939  70.817  1.00  0.00    -0.390 A  
HETATM   12  C   UNL     1     -11.607  10.714  69.624  1.00  0.00    -0.368 A  
HETATM   13  C   UNL     1     -11.233  11.777  68.797  1.00  0.00    -0.308 A  
HETATM   14  C   UNL     1     -11.628  13.071  69.114  1.00  0.00    -0.316 A  
HETATM   15  C   UNL     1     -12.390  13.308  70.250  1.00  0.00    -0.334 A  
HETATM   16 CL   UNL     1     -11.178  14.372  68.085  1.00  0.00    -0.285 Cl 
HETATM   17  C   UNL     1     -12.710  12.246  71.109  1.00  0.00    -0.243 A  
HETATM   18 CL   UNL     1     -13.653  12.595  72.511  1.00  0.00    -0.485 Cl 
ENDBRANCH  10  11
ENDBRANCH   3  10
ENDBRANCH   2   3
TORSDOF 5
ENDMDL
MODEL       25
REMARK 921   NORMALIZED FREE ENERGY PREDICTED BY IDOCK:   -4.72 KCAL/MOL
REMARK 922        TOTAL FREE ENERGY PREDICTED BY IDOCK:   -6.52 KCAL/MOL
REMARK 923 INTER-LIGAND FREE ENERGY PREDICTED BY IDOCK:   -6.05 KCAL/MOL
REMARK 924 INTRA-LIGAND FREE ENERGY PREDICTED BY IDOCK:   -0.47 KCAL/MOL
REMARK 927      BINDING AFFINITY PREDICTED BY RF-SCORE:    0.00 PKD
ROOT
HETATM    1  C   UNL     1      -8.808   9.177  69.976  1.00  0.00    -0.182 C  
HETATM    2  O   UNL     1     -10.138   9.500  70.340  1.00  0.00    -0.235 OA 
ENDROOT
BRANCH   2   3
HETATM    3  P   UNL     1     -11.074  10.584  69.371  1.00  0.00    -0.290 P  
HETATM    4  S   UNL     1     -10.732   9.490  67.710  1.00  0.00    -0.190 S  
BRANCH   3   5
HETATM    5  N   UNL     1     -12.449   9.954  70.166  1.00  0.00    -0.495 NA 
HETATM    6  H   UNL     1     -13.120   9.425  69.609  1.00  0.00     0.000 HD 
BRANCH   5   7
HETATM    7  C   UNL     1     -12.725  10.124  71.596  1.00  0.00    -0.447 C  
HETATM    8  C   UNL     1     -13.205  11.548  71.884  1.00  0.00    -0.479 C  
HETATM    9  C   UNL     1     -13.762   9.129  72.126  1.00  0.00    -0.531 C  
ENDBRANCH   5   7
ENDBRANCH   3   5
BRANCH   3  10
HETATM   10  O   UNL     1     -12.010  11.670  68.402  1.00  0.00    -0.483 OA 
BRANCH  10  11
HETATM   11  C   UNL     1     -11.612  12.970  68.191  1.00  0.00    -0.341 A  
HETATM   12  C   UNL     1     -11.210  13.823  69.218  1.00  0.00    -0.291 A  
HETATM   13  C   UNL     1     -10.982  15.181  68.980  1.00  0.00    -0.245 A  
HETATM   14  C   UNL     1     -11.066  15.678  67.685  1.00  0.00    -0.305 A  
HETATM   15  C   UNL     1     -11.378  14.830  66.631  1.00  0.00    -0.347 A  
HETATM   16 CL   UNL     1     -10.771  17.346  67.396  1.00  0.00    -0.301 Cl 
HETATM   17  C   UNL     1     -11.665  13.480  66.885  1.00  0.00    -0.384 A  
HETATM   18 CL   UNL     1     -12.053  12.468  65.542  1.00  0.00    -0.499 Cl 
ENDBRANCH  10  11
ENDBRANCH   3  10
ENDBRANCH   2   3
TORSDOF 5
ENDMDL
MODEL       26
REMARK 921   NORMALIZED FREE ENERGY PREDICTED BY IDOCK:   -4.69 KCAL/MOL
REMARK 922        TOTAL FREE ENERGY PREDICTED BY IDOCK:   -6.49 KCAL/MOL
REMARK 923 INTER-LIGAND FREE ENERGY PREDICTED BY IDOCK:   -6.00 KCAL/MOL
REMARK 924 INTRA-LIGAND FREE ENERGY PREDICTED BY IDOCK:   -0.49 KCAL/MOL
REMARK 927      BINDING AFFINITY PREDICTED BY RF-SCORE:    0.00 PKD
ROOT
HETATM    1  C   UNL     1      -9.043   9.170  70.431  1.00  0.00    -0.233 C  
HETATM    2  O   UNL     1     -10.366   9.557  70.756  1.00  0.00    -0.277 OA 
ENDROOT
BRANCH   2   3
HETATM    3  P   UNL     1     -11.251  10.616  69.713  1.00  0.00    -0.314 P  
HETATM    4  S   UNL     1     -10.478   9.739  68.068  1.00  0.00    -0.239 S  
BRANCH   3   5
HETATM    5  N   UNL     1     -12.648   9.754  70.185  1.00  0.00    -0.414 NA 
HETATM    6  H   UNL     1     -12.883   8.907  69.668  1.00  0.00     0.000 HD 
BRANCH   5   7
HETATM    7  C   UNL     1     -13.532  10.154  71.284  1.00  0.00    -0.228 C  
HETATM    8  C   UNL     1     -13.525   9.095  72.390  1.00  0.00    -0.535 C  
HETATM    9  C   UNL     1     -13.156  11.511  71.889  1.00  0.00    -0.492 C  
ENDBRANCH   5   7
ENDBRANCH   3   5
BRANCH   3  10
HETATM   10  O   UNL     1     -12.135  11.676  68.671  1.00  0.00    -0.449 OA 
BRANCH  10  11
HETATM   11  C   UNL     1     -11.743  12.979  68.469  1.00  0.00    -0.342 A  
HETATM   12  C   UNL     1     -11.454  13.860  69.511  1.00  0.00    -0.332 A  
HETATM   13  C   UNL     1     -11.229  15.218  69.265  1.00  0.00    -0.291 A  
HETATM   14  C   UNL     1     -11.200  15.687  67.957  1.00  0.00    -0.339 A  
HETATM   15  C   UNL     1     -11.396  14.811  66.898  1.00  0.00    -0.358 A  
HETATM   16 CL   UNL     1     -10.909  17.354  67.660  1.00  0.00    -0.300 Cl 
HETATM   17  C   UNL     1     -11.682  13.461  67.153  1.00  0.00    -0.379 A  
HETATM   18 CL   UNL     1     -11.924  12.415  65.802  1.00  0.00    -0.475 Cl 
ENDBRANCH  10  11
ENDBRANCH   3  10
ENDBRANCH   2   3
TORSDOF 5
ENDMDL
MODEL       27
REMARK 921   NORMALIZED FREE ENERGY PREDICTED BY IDOCK:   -4.69 KCAL/MOL
REMARK 922        TOTAL FREE ENERGY PREDICTED BY IDOCK:   -6.49 KCAL/MOL
REMARK 923 INTER-LIGAND FREE ENERGY PREDICTED BY IDOCK:   -6.24 KCAL/MOL
REMARK 924 INTRA-LIGAND FREE ENERGY PREDICTED BY IDOCK:   -0.25 KCAL/MOL
REMARK 927      BINDING AFFINITY PREDICTED BY RF-SCORE:    0.00 PKD
ROOT
HETATM    1  C   UNL     1     -13.397  15.337  71.201  1.00  0.00    -0.498 C  
HETATM    2  O   UNL     1     -12.155  14.996  70.611  1.00  0.00    -0.276 OA 
ENDROOT
BRANCH   2   3
HETATM    3  P   UNL     1     -11.635  15.770  69.154  1.00  0.00    -0.350 P  
HETATM    4  S   UNL     1      -9.704  15.327  69.538  1.00  0.00    -0.179 S  
BRANCH   3   5
HETATM    5  N   UNL     1     -12.340  14.456  68.320  1.00  0.00    -0.597 NA 
HETATM    6  H   UNL     1     -13.277  14.163  68.597  1.00  0.00     0.000 HD 
BRANCH   5   7
HETATM    7  C   UNL     1     -11.686  13.724  67.231  1.00  0.00    -0.382 C  
HETATM    8  C   UNL     1     -11.542  12.243  67.591  1.00  0.00    -0.421 C  
HETATM    9  C   UNL     1     -12.431  13.845  65.898  1.00  0.00    -0.519 C  
ENDBRANCH   5   7
ENDBRANCH   3   5
BRANCH   3  10
HETATM   10  O   UNL     1     -11.116  16.545  67.697  1.00  0.00    -0.255 OA 
BRANCH  10  11
HETATM   11  C   UNL     1     -10.210  17.580  67.717  1.00  0.00    -0.349 A  
HETATM   12  C   UNL     1     -10.401  18.748  68.454  1.00  0.00    -0.360 A  
HETATM   13  C   UNL     1      -9.541  19.841  68.307  1.00  0.00    -0.467 A  
HETATM   14  C   UNL     1      -8.425  19.736  67.486  1.00  0.00    -0.322 A  
HETATM   15  C   UNL     1      -8.165  18.551  66.811  1.00  0.00    -0.268 A  
HETATM   16 CL   UNL     1      -7.364  21.078  67.321  1.00  0.00    -0.395 Cl 
HETATM   17  C   UNL     1      -9.064  17.479  66.914  1.00  0.00    -0.254 A  
HETATM   18 CL   UNL     1      -8.699  16.030  66.050  1.00  0.00    -0.343 Cl 
ENDBRANCH  10  11
ENDBRANCH   3  10
ENDBRANCH   2   3
TORSDOF 5
ENDMDL
MODEL       28
REMARK 921   NORMALIZED FREE ENERGY PREDICTED BY IDOCK:   -4.69 KCAL/MOL
REMARK 922        TOTAL FREE ENERGY PREDICTED BY IDOCK:   -6.48 KCAL/MOL
REMARK 923 INTER-LIGAND FREE ENERGY PREDICTED BY IDOCK:   -5.84 KCAL/MOL
REMARK 924 INTRA-LIGAND FREE ENERGY PREDICTED BY IDOCK:   -0.64 KCAL/MOL
REMARK 927      BINDING AFFINITY PREDICTED BY RF-SCORE:    0.00 PKD
ROOT
HETATM    1  C   UNL     1      -9.460  11.176  62.700  1.00  0.00    -0.276 C  
HETATM    2  O   UNL     1      -9.810  12.342  63.424  1.00  0.00    -0.370 OA 
ENDROOT
BRANCH   2   3
HETATM    3  P   UNL     1     -10.875  12.243  64.783  1.00  0.00    -0.340 P  
HETATM    4  S   UNL     1     -12.500  12.236  63.585  1.00  0.00    -0.491 S  
BRANCH   3   5
HETATM    5  N   UNL     1     -10.329  10.635  64.970  1.00  0.00    -0.301 NA 
HETATM    6  H   UNL     1     -10.289  10.046  64.139  1.00  0.00     0.000 HD 
BRANCH   5   7
HETATM    7  C   UNL     1      -9.913  10.050  66.248  1.00  0.00    -0.245 C  
HETATM    8  C   UNL     1      -9.476   8.595  66.055  1.00  0.00    -0.278 C  
HETATM    9  C   UNL     1      -8.777  10.828  66.921  1.00  0.00    -0.141 C  
ENDBRANCH   5   7
ENDBRANCH   3   5
BRANCH   3  10
HETATM   10  O   UNL     1     -11.939  12.145  66.143  1.00  0.00    -0.593 OA 
BRANCH  10  11
HETATM   11  C   UNL     1     -11.875  13.055  67.174  1.00  0.00    -0.373 A  
HETATM   12  C   UNL     1     -11.769  14.431  66.972  1.00  0.00    -0.420 A  
HETATM   13  C   UNL     1     -11.532  15.299  68.042  1.00  0.00    -0.351 A  
HETATM   14  C   UNL     1     -11.495  14.802  69.339  1.00  0.00    -0.301 A  
HETATM   15  C   UNL     1     -11.687  13.447  69.573  1.00  0.00    -0.385 A  
HETATM   16 CL   UNL     1     -11.218  15.876  70.652  1.00  0.00    -0.379 Cl 
HETATM   17  C   UNL     1     -11.863  12.571  68.490  1.00  0.00    -0.295 A  
HETATM   18 CL   UNL     1     -12.093  10.896  68.833  1.00  0.00    -0.299 Cl 
ENDBRANCH  10  11
ENDBRANCH   3  10
ENDBRANCH   2   3
TORSDOF 5
ENDMDL
MODEL       29
REMARK 921   NORMALIZED FREE ENERGY PREDICTED BY IDOCK:   -4.67 KCAL/MOL
REMARK 922        TOTAL FREE ENERGY PREDICTED BY IDOCK:   -6.46 KCAL/MOL
REMARK 923 INTER-LIGAND FREE ENERGY PREDICTED BY IDOCK:   -6.02 KCAL/MOL
REMARK 924 INTRA-LIGAND FREE ENERGY PREDICTED BY IDOCK:   -0.44 KCAL/MOL
REMARK 927      BINDING AFFINITY PREDICTED BY RF-SCORE:    0.00 PKD
ROOT
HETATM    1  C   UNL     1     -10.723  14.388  65.011  1.00  0.00    -0.423 C  
HETATM    2  O   UNL     1     -10.867  15.054  66.253  1.00  0.00    -0.321 OA 
ENDROOT
BRANCH   2   3
HETATM    3  P   UNL     1     -11.471  14.208  67.635  1.00  0.00    -0.378 P  
HETATM    4  S   UNL     1     -11.789  12.537  66.549  1.00  0.00    -0.300 S  
BRANCH   3   5
HETATM    5  N   UNL     1      -9.861  14.189  68.206  1.00  0.00    -0.229 NA 
HETATM    6  H   UNL     1      -9.554  13.375  68.737  1.00  0.00     0.000 HD 
BRANCH   5   7
HETATM    7  C   UNL     1      -8.894  15.268  67.981  1.00  0.00    -0.169 C  
HETATM    8  C   UNL     1      -8.603  16.009  69.289  1.00  0.00    -0.224 C  
HETATM    9  C   UNL     1      -7.573  14.771  67.383  1.00  0.00    -0.228 C  
ENDBRANCH   5   7
ENDBRANCH   3   5
BRANCH   3  10
HETATM   10  O   UNL     1     -12.076  13.364  69.019  1.00  0.00    -0.325 OA 
BRANCH  10  11
HETATM   11  C   UNL     1     -12.334  14.015  70.203  1.00  0.00    -0.345 A  
HETATM   12  C   UNL     1     -12.251  15.399  70.348  1.00  0.00    -0.430 A  
HETATM   13  C   UNL     1     -12.350  15.999  71.606  1.00  0.00    -0.472 A  
HETATM   14  C   UNL     1     -12.628  15.220  72.722  1.00  0.00    -0.391 A  
HETATM   15  C   UNL     1     -12.804  13.849  72.590  1.00  0.00    -0.353 A  
HETATM   16 CL   UNL     1     -12.763  15.965  74.265  1.00  0.00    -0.659 Cl 
HETATM   17  C   UNL     1     -12.642  13.244  71.334  1.00  0.00    -0.271 A  
HETATM   18 CL   UNL     1     -12.866  11.537  71.223  1.00  0.00    -0.498 Cl 
ENDBRANCH  10  11
ENDBRANCH   3  10
ENDBRANCH   2   3
TORSDOF 5
ENDMDL
MODEL       30
REMARK 921   NORMALIZED FREE ENERGY PREDICTED BY IDOCK:   -4.67 KCAL/MOL
REMARK 922        TOTAL FREE ENERGY PREDICTED BY IDOCK:   -6.45 KCAL/MOL
REMARK 923 INTER-LIGAND FREE ENERGY PREDICTED BY IDOCK:   -6.01 KCAL/MOL
REMARK 924 INTRA-LIGAND FREE ENERGY PREDICTED BY IDOCK:   -0.44 KCAL/MOL
REMARK 927      BINDING AFFINITY PREDICTED BY RF-SCORE:    0.00 PKD
ROOT
HETATM    1  C   UNL     1      -9.741   9.928  65.556  1.00  0.00    -0.302 C  
HETATM    2  O   UNL     1      -9.628  11.302  65.882  1.00  0.00    -0.205 OA 
ENDROOT
BRANCH   2   3
HETATM    3  P   UNL     1     -10.425  11.940  67.278  1.00  0.00    -0.237 P  
HETATM    4  S   UNL     1      -9.453  13.701  67.102  1.00  0.00    -0.253 S  
BRANCH   3   5
HETATM    5  N   UNL     1     -11.840  12.000  66.323  1.00  0.00    -0.574 NA 
HETATM    6  H   UNL     1     -12.623  11.405  66.594  1.00  0.00     0.000 HD 
BRANCH   5   7
HETATM    7  C   UNL     1     -12.001  12.852  65.141  1.00  0.00    -0.414 C  
HETATM    8  C   UNL     1     -12.568  12.045  63.971  1.00  0.00    -0.466 C  
HETATM    9  C   UNL     1     -12.904  14.064  65.396  1.00  0.00    -0.442 C  
ENDBRANCH   5   7
ENDBRANCH   3   5
BRANCH   3  10
HETATM   10  O   UNL     1     -11.221  12.577  68.676  1.00  0.00    -0.241 OA 
BRANCH  10  11
HETATM   11  C   UNL     1     -11.707  11.753  69.665  1.00  0.00    -0.344 A  
HETATM   12  C   UNL     1     -11.500  10.374  69.681  1.00  0.00    -0.326 A  
HETATM   13  C   UNL     1     -12.156   9.558  70.606  1.00  0.00    -0.230 A  
HETATM   14  C   UNL     1     -12.957  10.131  71.587  1.00  0.00    -0.456 A  
HETATM   15  C   UNL     1     -13.107  11.510  71.646  1.00  0.00    -0.478 A  
HETATM   16 CL   UNL     1     -13.750   9.124  72.731  1.00  0.00    -0.406 Cl 
HETATM   17  C   UNL     1     -12.495  12.320  70.677  1.00  0.00    -0.236 A  
HETATM   18 CL   UNL     1     -12.718  14.027  70.791  1.00  0.00    -0.403 Cl 
ENDBRANCH  10  11
ENDBRANCH   3  10
ENDBRANCH   2   3
TORSDOF 5
ENDMDL
MODEL       31
REMARK 921   NORMALIZED FREE ENERGY PREDICTED BY IDOCK:   -4.64 KCAL/MOL
REMARK 922        TOTAL FREE ENERGY PREDICTED BY IDOCK:   -6.42 KCAL/MOL
REMARK 923 INTER-LIGAND FREE ENERGY PREDICTED BY IDOCK:   -6.12 KCAL/MOL
REMARK 924 INTRA-LIGAND FREE ENERGY PREDICTED BY IDOCK:   -0.30 KCAL/MOL
REMARK 927      BINDING AFFINITY PREDICTED BY RF-SCORE:    0.00 PKD
ROOT
HETATM    1  C   UNL     1      -8.196  15.639  66.661  1.00  0.00    -0.249 C  
HETATM    2  O   UNL     1      -9.524  16.129  66.623  1.00  0.00    -0.222 OA 
ENDROOT
BRANCH   2   3
HETATM    3  P   UNL     1     -10.558  15.968  68.000  1.00  0.00    -0.314 P  
HETATM    4  S   UNL     1      -8.979  15.918  69.256  1.00  0.00    -0.218 S  
BRANCH   3   5
HETATM    5  N   UNL     1     -10.997  17.598  67.740  1.00  0.00    -0.224 NA 
HETATM    6  H   UNL     1     -11.991  17.825  67.708  1.00  0.00     0.000 HD 
BRANCH   5   7
HETATM    7  C   UNL     1     -10.037  18.692  67.559  1.00  0.00    -0.360 C  
HETATM    8  C   UNL     1     -10.391  19.517  66.319  1.00  0.00    -0.601 C  
HETATM    9  C   UNL     1      -9.957  19.623  68.773  1.00  0.00    -0.542 C  
ENDBRANCH   5   7
ENDBRANCH   3   5
BRANCH   3  10
HETATM   10  O   UNL     1     -11.594  15.805  69.376  1.00  0.00    -0.326 OA 
BRANCH  10  11
HETATM   11  C   UNL     1     -11.831  14.581  69.958  1.00  0.00    -0.313 A  
HETATM   12  C   UNL     1     -11.531  13.369  69.336  1.00  0.00    -0.333 A  
HETATM   13  C   UNL     1     -11.947  12.154  69.887  1.00  0.00    -0.380 A  
HETATM   14  C   UNL     1     -12.589  12.139  71.120  1.00  0.00    -0.260 A  
HETATM   15  C   UNL     1     -12.819  13.327  71.800  1.00  0.00    -0.367 A  
HETATM   16 CL   UNL     1     -13.086  10.641  71.800  1.00  0.00    -0.573 Cl 
HETATM   17  C   UNL     1     -12.454  14.549  71.214  1.00  0.00    -0.346 A  
HETATM   18 CL   UNL     1     -12.768  15.997  72.098  1.00  0.00    -0.490 Cl 
ENDBRANCH  10  11
ENDBRANCH   3  10
ENDBRANCH   2   3
TORSDOF 5
ENDMDL
MODEL       32
REMARK 921   NORMALIZED FREE ENERGY PREDICTED BY IDOCK:   -4.64 KCAL/MOL
REMARK 922        TOTAL FREE ENERGY PREDICTED BY IDOCK:   -6.42 KCAL/MOL
REMARK 923 INTER-LIGAND FREE ENERGY PREDICTED BY IDOCK:   -5.95 KCAL/MOL
REMARK 924 INTRA-LIGAND FREE ENERGY PREDICTED BY IDOCK:   -0.46 KCAL/MOL
REMARK 927      BINDING AFFINITY PREDICTED BY RF-SCORE:    0.00 PKD
ROOT
HETATM    1  C   UNL     1      -8.018  16.712  66.349  1.00  0.00    -0.325 C  
HETATM    2  O   UNL     1      -8.188  15.335  66.632  1.00  0.00    -0.226 OA 
ENDROOT
BRANCH   2   3
HETATM    3  P   UNL     1      -9.744  14.714  67.061  1.00  0.00    -0.259 P  
HETATM    4  S   UNL     1     -10.679  16.172  66.023  1.00  0.00    -0.185 S  
BRANCH   3   5
HETATM    5  N   UNL     1      -9.411  13.417  65.999  1.00  0.00    -0.483 NA 
HETATM    6  H   UNL     1      -8.444  13.275  65.710  1.00  0.00     0.000 HD 
BRANCH   5   7
HETATM    7  C   UNL     1     -10.427  12.497  65.478  1.00  0.00    -0.279 C  
HETATM    8  C   UNL     1     -10.681  12.764  63.993  1.00  0.00    -0.457 C  
HETATM    9  C   UNL     1     -10.049  11.024  65.664  1.00  0.00    -0.310 C  
ENDBRANCH   5   7
ENDBRANCH   3   5
BRANCH   3  10
HETATM   10  O   UNL     1     -11.300  14.092  67.491  1.00  0.00    -0.293 OA 
BRANCH  10  11
HETATM   11  C   UNL     1     -11.810  14.243  68.760  1.00  0.00    -0.341 A  
HETATM   12  C   UNL     1     -12.026  15.487  69.353  1.00  0.00    -0.358 A  
HETATM   13  C   UNL     1     -12.379  15.590  70.702  1.00  0.00    -0.462 A  
HETATM   14  C   UNL     1     -12.610  14.438  71.445  1.00  0.00    -0.354 A  
HETATM   15  C   UNL     1     -12.487  13.189  70.852  1.00  0.00    -0.407 A  
HETATM   16 CL   UNL     1     -13.057  14.571  73.099  1.00  0.00    -0.604 Cl 
HETATM   17  C   UNL     1     -12.073  13.090  69.514  1.00  0.00    -0.230 A  
HETATM   18 CL   UNL     1     -11.930  11.515  68.825  1.00  0.00    -0.377 Cl 
ENDBRANCH  10  11
ENDBRANCH   3  10
ENDBRANCH   2   3
TORSDOF 5
ENDMDL
MODEL       33
REMARK 921   NORMALIZED FREE ENERGY PREDICTED BY IDOCK:   -4.63 KCAL/MOL
REMARK 922        TOTAL FREE ENERGY PREDICTED BY IDOCK:   -6.40 KCAL/MOL
REMARK 923 INTER-LIGAND FREE ENERGY PREDICTED BY IDOCK:   -6.04 KCAL/MOL
REMARK 924 INTRA-LIGAND FREE ENERGY PREDICTED BY IDOCK:   -0.36 KCAL/MOL
REMARK 927      BINDING AFFINITY PREDICTED BY RF-SCORE:    0.00 PKD
ROOT
HETATM    1  C   UNL     1     -12.030  11.093  69.113  1.00  0.00    -0.343 C  
HETATM    2  O   UNL     1     -11.950  11.656  67.816  1.00  0.00    -0.608 OA 
ENDROOT
BRANCH   2   3
HETATM    3  P   UNL     1     -10.764  12.863  67.457  1.00  0.00    -0.234 P  
HETATM    4  S   UNL     1      -9.290  11.739  68.257  1.00  0.00    -0.186 S  
BRANCH   3   5
HETATM    5  N   UNL     1     -10.955  12.423  65.817  1.00  0.00    -0.288 NA 
HETATM    6  H   UNL     1     -10.144  12.045  65.328  1.00  0.00     0.000 HD 
BRANCH   5   7
HETATM    7  C   UNL     1     -12.209  12.555  65.069  1.00  0.00    -0.456 C  
HETATM    8  C   UNL     1     -12.801  13.954  65.256  1.00  0.00    -0.437 C  
HETATM    9  C   UNL     1     -12.042  12.279  63.571  1.00  0.00    -0.649 C  
ENDBRANCH   5   7
ENDBRANCH   3   5
BRANCH   3  10
HETATM   10  O   UNL     1      -9.578  14.071  67.098  1.00  0.00    -0.230 OA 
BRANCH  10  11
HETATM   11  C   UNL     1      -9.896  15.409  67.086  1.00  0.00    -0.221 A  
HETATM   12  C   UNL     1     -10.106  16.134  65.912  1.00  0.00    -0.379 A  
HETATM   13  C   UNL     1     -10.253  17.523  65.940  1.00  0.00    -0.251 A  
HETATM   14  C   UNL     1     -10.286  18.189  67.160  1.00  0.00    -0.367 A  
HETATM   15  C   UNL     1     -10.168  17.478  68.346  1.00  0.00    -0.372 A  
HETATM   16 CL   UNL     1     -10.482  19.897  67.189  1.00  0.00    -0.573 Cl 
HETATM   17  C   UNL     1      -9.959  16.091  68.309  1.00  0.00    -0.220 A  
HETATM   18 CL   UNL     1      -9.813  15.254  69.812  1.00  0.00    -0.229 Cl 
ENDBRANCH  10  11
ENDBRANCH   3  10
ENDBRANCH   2   3
TORSDOF 5
ENDMDL
MODEL       34
REMARK 921   NORMALIZED FREE ENERGY PREDICTED BY IDOCK:   -4.61 KCAL/MOL
REMARK 922        TOTAL FREE ENERGY PREDICTED BY IDOCK:   -6.38 KCAL/MOL
REMARK 923 INTER-LIGAND FREE ENERGY PREDICTED BY IDOCK:   -5.89 KCAL/MOL
REMARK 924 INTRA-LIGAND FREE ENERGY PREDICTED BY IDOCK:   -0.49 KCAL/MOL
REMARK 927      BINDING AFFINITY PREDICTED BY RF-SCORE:    0.00 PKD
ROOT
HETATM    1  C   UNL     1     -10.657  15.355  66.022  1.00  0.00    -0.322 C  
HETATM    2  O   UNL     1     -10.266  13.994  66.065  1.00  0.00    -0.285 OA 
ENDROOT
BRANCH   2   3
HETATM    3  P   UNL     1     -11.179  12.848  66.982  1.00  0.00    -0.321 P  
HETATM    4  S   UNL     1     -11.743  14.265  68.304  1.00  0.00    -0.343 S  
BRANCH   3   5
HETATM    5  N   UNL     1     -12.290  12.840  65.684  1.00  0.00    -0.594 NA 
HETATM    6  H   UNL     1     -13.116  13.433  65.761  1.00  0.00     0.000 HD 
BRANCH   5   7
HETATM    7  C   UNL     1     -12.131  12.037  64.468  1.00  0.00    -0.255 C  
HETATM    8  C   UNL     1     -12.128  12.935  63.228  1.00  0.00    -0.520 C  
HETATM    9  C   UNL     1     -10.855  11.189  64.474  1.00  0.00    -0.320 C  
ENDBRANCH   5   7
ENDBRANCH   3   5
BRANCH   3  10
HETATM   10  O   UNL     1     -12.092  11.700  67.900  1.00  0.00    -0.613 OA 
BRANCH  10  11
HETATM   11  C   UNL     1     -11.486  10.637  68.530  1.00  0.00    -0.265 A  
HETATM   12  C   UNL     1     -10.734   9.677  67.854  1.00  0.00    -0.302 A  
HETATM   13  C   UNL     1     -10.284   8.524  68.506  1.00  0.00    -0.225 A  
HETATM   14  C   UNL     1     -10.508   8.371  69.869  1.00  0.00    -0.222 A  
HETATM   15  C   UNL     1     -11.177   9.356  70.581  1.00  0.00    -0.345 A  
HETATM   16 CL   UNL     1      -9.941   6.958  70.667  1.00  0.00    -0.194 Cl 
HETATM   17  C   UNL     1     -11.679  10.482  69.910  1.00  0.00    -0.294 A  
HETATM   18 CL   UNL     1     -12.509  11.675  70.840  1.00  0.00    -0.471 Cl 
ENDBRANCH  10  11
ENDBRANCH   3  10
ENDBRANCH   2   3
TORSDOF 5
ENDMDL
MODEL       35
REMARK 921   NORMALIZED FREE ENERGY PREDICTED BY IDOCK:   -4.60 KCAL/MOL
REMARK 922        TOTAL FREE ENERGY PREDICTED BY IDOCK:   -6.37 KCAL/MOL
REMARK 923 INTER-LIGAND FREE ENERGY PREDICTED BY IDOCK:   -5.92 KCAL/MOL
REMARK 924 INTRA-LIGAND FREE ENERGY PREDICTED BY IDOCK:   -0.45 KCAL/MOL
REMARK 927      BINDING AFFINITY PREDICTED BY RF-SCORE:    0.00 PKD
ROOT
HETATM    1  C   UNL     1     -10.349  15.296  65.287  1.00  0.00    -0.401 C  
HETATM    2  O   UNL     1      -9.856  14.528  66.371  1.00  0.00    -0.266 OA 
ENDROOT
BRANCH   2   3
HETATM    3  P   UNL     1     -10.945  13.845  67.528  1.00  0.00    -0.290 P  
HETATM    4  S   UNL     1     -12.460  13.851  66.195  1.00  0.00    -0.373 S  
BRANCH   3   5
HETATM    5  N   UNL     1     -10.067  12.390  67.350  1.00  0.00    -0.201 NA 
HETATM    6  H   UNL     1      -9.055  12.427  67.465  1.00  0.00     0.000 HD 
BRANCH   5   7
HETATM    7  C   UNL     1     -10.677  11.093  67.042  1.00  0.00    -0.268 C  
HETATM    8  C   UNL     1     -10.244  10.612  65.654  1.00  0.00    -0.319 C  
HETATM    9  C   UNL     1     -10.335  10.013  68.074  1.00  0.00    -0.238 C  
ENDBRANCH   5   7
ENDBRANCH   3   5
BRANCH   3  10
HETATM   10  O   UNL     1     -12.033  13.163  68.687  1.00  0.00    -0.328 OA 
BRANCH  10  11
HETATM   11  C   UNL     1     -12.322  13.806  69.868  1.00  0.00    -0.275 A  
HETATM   12  C   UNL     1     -12.284  15.192  70.012  1.00  0.00    -0.379 A  
HETATM   13  C   UNL     1     -12.414  15.790  71.269  1.00  0.00    -0.505 A  
HETATM   14  C   UNL     1     -12.678  15.003  72.384  1.00  0.00    -0.342 A  
HETATM   15  C   UNL     1     -12.809  13.627  72.251  1.00  0.00    -0.332 A  
HETATM   16 CL   UNL     1     -12.851  15.744  73.925  1.00  0.00    -0.677 Cl 
HETATM   17  C   UNL     1     -12.617  13.027  70.997  1.00  0.00    -0.299 A  
HETATM   18 CL   UNL     1     -12.785  11.313  70.885  1.00  0.00    -0.431 Cl 
ENDBRANCH  10  11
ENDBRANCH   3  10
ENDBRANCH   2   3
TORSDOF 5
ENDMDL
MODEL       36
REMARK 921   NORMALIZED FREE ENERGY PREDICTED BY IDOCK:   -4.59 KCAL/MOL
REMARK 922        TOTAL FREE ENERGY PREDICTED BY IDOCK:   -6.36 KCAL/MOL
REMARK 923 INTER-LIGAND FREE ENERGY PREDICTED BY IDOCK:   -5.70 KCAL/MOL
REMARK 924 INTRA-LIGAND FREE ENERGY PREDICTED BY IDOCK:   -0.66 KCAL/MOL
REMARK 927      BINDING AFFINITY PREDICTED BY RF-SCORE:    0.00 PKD
ROOT
HETATM    1  C   UNL     1      -8.271  15.012  69.273  1.00  0.00    -0.165 C  
HETATM    2  O   UNL     1      -9.670  15.187  69.412  1.00  0.00    -0.225 OA 
ENDROOT
BRANCH   2   3
HETATM    3  P   UNL     1     -10.755  14.552  68.225  1.00  0.00    -0.255 P  
HETATM    4  S   UNL     1     -12.133  14.112  69.633  1.00  0.00    -0.341 S  
BRANCH   3   5
HETATM    5  N   UNL     1     -10.990  16.166  67.718  1.00  0.00    -0.319 NA 
HETATM    6  H   UNL     1     -11.515  16.787  68.334  1.00  0.00     0.000 HD 
BRANCH   5   7
HETATM    7  C   UNL     1     -10.487  16.716  66.456  1.00  0.00    -0.262 C  
HETATM    8  C   UNL     1     -10.214  18.216  66.594  1.00  0.00    -0.388 C  
HETATM    9  C   UNL     1      -9.213  16.019  65.967  1.00  0.00    -0.375 C  
ENDBRANCH   5   7
ENDBRANCH   3   5
BRANCH   3  10
HETATM   10  O   UNL     1     -11.840  13.916  67.037  1.00  0.00    -0.369 OA 
BRANCH  10  11
HETATM   11  C   UNL     1     -11.419  13.012  66.089  1.00  0.00    -0.340 A  
HETATM   12  C   UNL     1     -10.807  11.801  66.408  1.00  0.00    -0.325 A  
HETATM   13  C   UNL     1     -10.240  10.996  65.414  1.00  0.00    -0.333 A  
HETATM   14  C   UNL     1     -10.368  11.357  64.079  1.00  0.00    -0.362 A  
HETATM   15  C   UNL     1     -11.052  12.514  63.731  1.00  0.00    -0.503 A  
HETATM   16 CL   UNL     1      -9.683  10.357  62.860  1.00  0.00    -0.328 Cl 
HETATM   17  C   UNL     1     -11.565  13.349  64.735  1.00  0.00    -0.339 A  
HETATM   18 CL   UNL     1     -12.402  14.778  64.251  1.00  0.00    -0.472 Cl 
ENDBRANCH  10  11
ENDBRANCH   3  10
ENDBRANCH   2   3
TORSDOF 5
ENDMDL
MODEL       37
REMARK 921   NORMALIZED FREE ENERGY PREDICTED BY IDOCK:   -4.59 KCAL/MOL
REMARK 922        TOTAL FREE ENERGY PREDICTED BY IDOCK:   -6.35 KCAL/MOL
REMARK 923 INTER-LIGAND FREE ENERGY PREDICTED BY IDOCK:   -5.85 KCAL/MOL
REMARK 924 INTRA-LIGAND FREE ENERGY PREDICTED BY IDOCK:   -0.50 KCAL/MOL
REMARK 927      BINDING AFFINITY PREDICTED BY RF-SCORE:    0.00 PKD
ROOT
HETATM    1  C   UNL     1      -7.833  12.410  67.834  1.00  0.00    -0.145 C  
HETATM    2  O   UNL     1      -9.237  12.239  67.756  1.00  0.00    -0.177 OA 
ENDROOT
BRANCH   2   3
HETATM    3  P   UNL     1     -10.284  13.613  67.666  1.00  0.00    -0.246 P  
HETATM    4  S   UNL     1     -11.559  12.636  66.444  1.00  0.00    -0.399 S  
BRANCH   3   5
HETATM    5  N   UNL     1     -10.710  13.271  69.285  1.00  0.00    -0.443 NA 
HETATM    6  H   UNL     1      -9.963  13.236  69.978  1.00  0.00     0.000 HD 
BRANCH   5   7
HETATM    7  C   UNL     1     -12.081  13.024  69.742  1.00  0.00    -0.258 C  
HETATM    8  C   UNL     1     -12.194  11.637  70.378  1.00  0.00    -0.434 C  
HETATM    9  C   UNL     1     -12.576  14.075  70.742  1.00  0.00    -0.431 C  
ENDBRANCH   5   7
ENDBRANCH   3   5
BRANCH   3  10
HETATM   10  O   UNL     1     -11.330  14.987  67.577  1.00  0.00    -0.322 OA 
BRANCH  10  11
HETATM   11  C   UNL     1     -10.833  16.270  67.560  1.00  0.00    -0.268 A  
HETATM   12  C   UNL     1     -10.545  16.994  68.717  1.00  0.00    -0.346 A  
HETATM   13  C   UNL     1     -10.208  18.349  68.654  1.00  0.00    -0.370 A  
HETATM   14  C   UNL     1     -10.065  18.968  67.418  1.00  0.00    -0.370 A  
HETATM   15  C   UNL     1     -10.259  18.245  66.249  1.00  0.00    -0.414 A  
HETATM   16 CL   UNL     1      -9.637  20.631  67.347  1.00  0.00    -0.584 Cl 
HETATM   17  C   UNL     1     -10.657  16.901  66.319  1.00  0.00    -0.191 A  
HETATM   18 CL   UNL     1     -10.891  16.047  64.838  1.00  0.00    -0.456 Cl 
ENDBRANCH  10  11
ENDBRANCH   3  10
ENDBRANCH   2   3
TORSDOF 5
ENDMDL
MODEL       38
REMARK 921   NORMALIZED FREE ENERGY PREDICTED BY IDOCK:   -4.55 KCAL/MOL
REMARK 922        TOTAL FREE ENERGY PREDICTED BY IDOCK:   -6.31 KCAL/MOL
REMARK 923 INTER-LIGAND FREE ENERGY PREDICTED BY IDOCK:   -5.79 KCAL/MOL
REMARK 924 INTRA-LIGAND FREE ENERGY PREDICTED BY IDOCK:   -0.52 KCAL/MOL
REMARK 927      BINDING AFFINITY PREDICTED BY RF-SCORE:    0.00 PKD
ROOT
HETATM    1  C   UNL     1     -12.699  12.081  63.478  1.00  0.00    -0.443 C  
HETATM    2  O   UNL     1     -12.895  12.677  64.748  1.00  0.00    -0.730 OA 
ENDROOT
BRANCH   2   3
HETATM    3  P   UNL     1     -11.693  12.528  65.982  1.00  0.00    -0.373 P  
HETATM    4  S   UNL     1     -10.251  12.167  64.616  1.00  0.00    -0.273 S  
BRANCH   3   5
HETATM    5  N   UNL     1     -11.836  14.217  66.190  1.00  0.00    -0.391 NA 
HETATM    6  H   UNL     1     -12.719  14.656  65.932  1.00  0.00     0.000 HD 
BRANCH   5   7
HETATM    7  C   UNL     1     -10.770  15.076  66.717  1.00  0.00    -0.308 C  
HETATM    8  C   UNL     1     -10.376  16.136  65.685  1.00  0.00    -0.405 C  
HETATM    9  C   UNL     1     -11.156  15.772  68.026  1.00  0.00    -0.337 C  
ENDBRANCH   5   7
ENDBRANCH   3   5
BRANCH   3  10
HETATM   10  O   UNL     1     -10.491  12.377  67.217  1.00  0.00    -0.220 OA 
BRANCH  10  11
HETATM   11  C   UNL     1     -10.669  11.543  68.297  1.00  0.00    -0.211 A  
HETATM   12  C   UNL     1     -11.684  11.717  69.237  1.00  0.00    -0.396 A  
HETATM   13  C   UNL     1     -11.721  10.952  70.407  1.00  0.00    -0.444 A  
HETATM   14  C   UNL     1     -10.789   9.939  70.599  1.00  0.00    -0.330 A  
HETATM   15  C   UNL     1      -9.823   9.689  69.635  1.00  0.00    -0.233 A  
HETATM   16 CL   UNL     1     -10.848   8.994  72.033  1.00  0.00    -0.408 Cl 
HETATM   17  C   UNL     1      -9.753  10.499  68.491  1.00  0.00    -0.165 A  
HETATM   18 CL   UNL     1      -8.530  10.149  67.325  1.00  0.00    -0.125 Cl 
ENDBRANCH  10  11
ENDBRANCH   3  10
ENDBRANCH   2   3
TORSDOF 5
ENDMDL
MODEL       39
REMARK 921   NORMALIZED FREE ENERGY PREDICTED BY IDOCK:   -4.55 KCAL/MOL
REMARK 922        TOTAL FREE ENERGY PREDICTED BY IDOCK:   -6.30 KCAL/MOL
REMARK 923 INTER-LIGAND FREE ENERGY PREDICTED BY IDOCK:   -5.88 KCAL/MOL
REMARK 924 INTRA-LIGAND FREE ENERGY PREDICTED BY IDOCK:   -0.42 KCAL/MOL
REMARK 927      BINDING AFFINITY PREDICTED BY RF-SCORE:    0.00 PKD
ROOT
HETATM    1  C   UNL     1     -12.243  11.998  63.396  1.00  0.00    -0.519 C  
HETATM    2  O   UNL     1     -11.102  12.822  63.554  1.00  0.00    -0.433 OA 
ENDROOT
BRANCH   2   3
HETATM    3  P   UNL     1     -10.708  13.484  65.102  1.00  0.00    -0.383 P  
HETATM    4  S   UNL     1     -12.658  13.746  65.554  1.00  0.00    -0.477 S  
BRANCH   3   5
HETATM    5  N   UNL     1     -10.251  11.901  65.555  1.00  0.00    -0.245 NA 
HETATM    6  H   UNL     1     -10.180  11.198  64.820  1.00  0.00     0.000 HD 
BRANCH   5   7
HETATM    7  C   UNL     1      -9.956  11.490  66.931  1.00  0.00    -0.205 C  
HETATM    8  C   UNL     1     -11.151  10.751  67.538  1.00  0.00    -0.374 C  
HETATM    9  C   UNL     1      -8.713  10.601  67.035  1.00  0.00    -0.128 C  
ENDBRANCH   5   7
ENDBRANCH   3   5
BRANCH   3  10
HETATM   10  O   UNL     1     -10.312  14.147  66.651  1.00  0.00    -0.270 OA 
BRANCH  10  11
HETATM   11  C   UNL     1     -10.457  15.489  66.917  1.00  0.00    -0.301 A  
HETATM   12  C   UNL     1     -10.295  16.481  65.950  1.00  0.00    -0.365 A  
HETATM   13  C   UNL     1     -10.279  17.834  66.302  1.00  0.00    -0.364 A  
HETATM   14  C   UNL     1     -10.521  18.208  67.618  1.00  0.00    -0.416 A  
HETATM   15  C   UNL     1     -10.774  17.241  68.582  1.00  0.00    -0.280 A  
HETATM   16 CL   UNL     1     -10.515  19.873  68.042  1.00  0.00    -0.537 Cl 
HETATM   17  C   UNL     1     -10.728  15.882  68.235  1.00  0.00    -0.291 A  
HETATM   18 CL   UNL     1     -11.044  14.720  69.471  1.00  0.00    -0.287 Cl 
ENDBRANCH  10  11
ENDBRANCH   3  10
ENDBRANCH   2   3
TORSDOF 5
ENDMDL
MODEL       40
REMARK 921   NORMALIZED FREE ENERGY PREDICTED BY IDOCK:   -4.53 KCAL/MOL
REMARK 922        TOTAL FREE ENERGY PREDICTED BY IDOCK:   -6.27 KCAL/MOL
REMARK 923 INTER-LIGAND FREE ENERGY PREDICTED BY IDOCK:   -5.59 KCAL/MOL
REMARK 924 INTRA-LIGAND FREE ENERGY PREDICTED BY IDOCK:   -0.68 KCAL/MOL
REMARK 927      BINDING AFFINITY PREDICTED BY RF-SCORE:    0.00 PKD
ROOT
HETATM    1  C   UNL     1     -10.132  10.963  63.437  1.00  0.00    -0.340 C  
HETATM    2  O   UNL     1     -10.944  11.256  64.560  1.00  0.00    -0.310 OA 
ENDROOT
BRANCH   2   3
HETATM    3  P   UNL     1     -10.256  11.972  65.976  1.00  0.00    -0.242 P  
HETATM    4  S   UNL     1      -8.537  10.941  65.735  1.00  0.00    -0.148 S  
BRANCH   3   5
HETATM    5  N   UNL     1     -10.154  13.420  65.076  1.00  0.00    -0.530 NA 
HETATM    6  H   UNL     1      -9.229  13.739  64.791  1.00  0.00     0.000 HD 
BRANCH   5   7
HETATM    7  C   UNL     1     -11.311  14.233  64.688  1.00  0.00    -0.373 C  
HETATM    8  C   UNL     1     -12.515  13.911  65.577  1.00  0.00    -0.541 C  
HETATM    9  C   UNL     1     -11.032  15.738  64.749  1.00  0.00    -0.410 C  
ENDBRANCH   5   7
ENDBRANCH   3   5
BRANCH   3  10
HETATM   10  O   UNL     1      -9.568  12.688  67.393  1.00  0.00    -0.187 OA 
BRANCH  10  11
HETATM   11  C   UNL     1     -10.353  13.302  68.342  1.00  0.00    -0.251 A  
HETATM   12  C   UNL     1     -11.288  12.618  69.120  1.00  0.00    -0.339 A  
HETATM   13  C   UNL     1     -12.182  13.308  69.944  1.00  0.00    -0.313 A  
HETATM   14  C   UNL     1     -12.083  14.688  70.067  1.00  0.00    -0.329 A  
HETATM   15  C   UNL     1     -11.102  15.382  69.371  1.00  0.00    -0.283 A  
HETATM   16 CL   UNL     1     -13.175  15.529  71.093  1.00  0.00    -0.568 Cl 
HETATM   17  C   UNL     1     -10.247  14.692  68.498  1.00  0.00    -0.240 A  
HETATM   18 CL   UNL     1      -9.049  15.601  67.651  1.00  0.00    -0.191 Cl 
ENDBRANCH  10  11
ENDBRANCH   3  10
ENDBRANCH   2   3
TORSDOF 5
ENDMDL
MODEL       41
REMARK 921   NORMALIZED FREE ENERGY PREDICTED BY IDOCK:   -4.51 KCAL/MOL
REMARK 922        TOTAL FREE ENERGY PREDICTED BY IDOCK:   -6.25 KCAL/MOL
REMARK 923 INTER-LIGAND FREE ENERGY PREDICTED BY IDOCK:   -5.80 KCAL/MOL
REMARK 924 INTRA-LIGAND FREE ENERGY PREDICTED BY IDOCK:   -0.45 KCAL/MOL
REMARK 927      BINDING AFFINITY PREDICTED BY RF-SCORE:    0.00 PKD
ROOT
HETATM    1  C   UNL     1      -8.672   8.832  70.960  1.00  0.00    -0.202 C  
HETATM    2  O   UNL     1      -9.830   9.648  70.943  1.00  0.00    -0.245 OA 
ENDROOT
BRANCH   2   3
HETATM    3  P   UNL     1     -10.633   9.998  69.452  1.00  0.00    -0.263 P  
HETATM    4  S   UNL     1      -9.654   8.508  68.505  1.00  0.00    -0.154 S  
BRANCH   3   5
HETATM    5  N   UNL     1     -12.042   9.353  70.172  1.00  0.00    -0.445 NA 
HETATM    6  H   UNL     1     -12.199   8.348  70.096  1.00  0.00     0.000 HD 
BRANCH   5   7
HETATM    7  C   UNL     1     -13.039  10.151  70.893  1.00  0.00    -0.335 C  
HETATM    8  C   UNL     1     -13.459   9.445  72.185  1.00  0.00    -0.543 C  
HETATM    9  C   UNL     1     -12.544  11.561  71.232  1.00  0.00    -0.452 C  
ENDBRANCH   5   7
ENDBRANCH   3   5
BRANCH   3  10
HETATM   10  O   UNL     1     -11.437  10.349  67.961  1.00  0.00    -0.356 OA 
BRANCH  10  11
HETATM   11  C   UNL     1     -11.309  11.573  67.345  1.00  0.00    -0.298 A  
HETATM   12  C   UNL     1     -11.730  12.768  67.927  1.00  0.00    -0.408 A  
HETATM   13  C   UNL     1     -11.740  13.961  67.198  1.00  0.00    -0.419 A  
HETATM   14  C   UNL     1     -11.237  13.981  65.902  1.00  0.00    -0.308 A  
HETATM   15  C   UNL     1     -10.729  12.821  65.333  1.00  0.00    -0.309 A  
HETATM   16 CL   UNL     1     -11.238  15.453  65.015  1.00  0.00    -0.398 Cl 
HETATM   17  C   UNL     1     -10.778  11.615  66.048  1.00  0.00    -0.280 A  
HETATM   18 CL   UNL     1     -10.140  10.200  65.293  1.00  0.00    -0.384 Cl 
ENDBRANCH  10  11
ENDBRANCH   3  10
ENDBRANCH   2   3
TORSDOF 5
ENDMDL
MODEL       42
REMARK 921   NORMALIZED FREE ENERGY PREDICTED BY IDOCK:   -4.49 KCAL/MOL
REMARK 922        TOTAL FREE ENERGY PREDICTED BY IDOCK:   -6.22 KCAL/MOL
REMARK 923 INTER-LIGAND FREE ENERGY PREDICTED BY IDOCK:   -5.55 KCAL/MOL
REMARK 924 INTRA-LIGAND FREE ENERGY PREDICTED BY IDOCK:   -0.67 KCAL/MOL
REMARK 927      BINDING AFFINITY PREDICTED BY RF-SCORE:    0.00 PKD
ROOT
HETATM    1  C   UNL     1     -11.207  15.930  64.764  1.00  0.00    -0.355 C  
HETATM    2  O   UNL     1     -11.126  15.297  66.028  1.00  0.00    -0.332 OA 
ENDROOT
BRANCH   2   3
HETATM    3  P   UNL     1     -11.338  13.587  66.168  1.00  0.00    -0.328 P  
HETATM    4  S   UNL     1     -11.956  13.446  64.251  1.00  0.00    -0.442 S  
BRANCH   3   5
HETATM    5  N   UNL     1      -9.634  13.476  66.201  1.00  0.00    -0.429 NA 
HETATM    6  H   UNL     1      -9.162  13.134  65.364  1.00  0.00     0.000 HD 
BRANCH   5   7
HETATM    7  C   UNL     1      -8.806  13.841  67.355  1.00  0.00    -0.210 C  
HETATM    8  C   UNL     1      -7.918  12.666  67.772  1.00  0.00    -0.158 C  
HETATM    9  C   UNL     1      -7.923  15.066  67.093  1.00  0.00    -0.238 C  
ENDBRANCH   5   7
ENDBRANCH   3   5
BRANCH   3  10
HETATM   10  O   UNL     1     -11.551  11.876  66.309  1.00  0.00    -0.445 OA 
BRANCH  10  11
HETATM   11  C   UNL     1     -11.409  11.230  67.516  1.00  0.00    -0.288 A  
HETATM   12  C   UNL     1     -11.956  11.707  68.706  1.00  0.00    -0.326 A  
HETATM   13  C   UNL     1     -11.641  11.114  69.933  1.00  0.00    -0.416 A  
HETATM   14  C   UNL     1     -10.845   9.975  69.964  1.00  0.00    -0.302 A  
HETATM   15  C   UNL     1     -10.361   9.430  68.783  1.00  0.00    -0.230 A  
HETATM   16 CL   UNL     1     -10.473   9.242  71.473  1.00  0.00    -0.415 Cl 
HETATM   17  C   UNL     1     -10.630  10.064  67.560  1.00  0.00    -0.280 A  
HETATM   18 CL   UNL     1     -10.001   9.349  66.122  1.00  0.00    -0.358 Cl 
ENDBRANCH  10  11
ENDBRANCH   3  10
ENDBRANCH   2   3
TORSDOF 5
ENDMDL
MODEL       43
REMARK 921   NORMALIZED FREE ENERGY PREDICTED BY IDOCK:   -4.48 KCAL/MOL
REMARK 922        TOTAL FREE ENERGY PREDICTED BY IDOCK:   -6.21 KCAL/MOL
REMARK 923 INTER-LIGAND FREE ENERGY PREDICTED BY IDOCK:   -5.55 KCAL/MOL
REMARK 924 INTRA-LIGAND FREE ENERGY PREDICTED BY IDOCK:   -0.66 KCAL/MOL
REMARK 927      BINDING AFFINITY PREDICTED BY RF-SCORE:    0.00 PKD
ROOT
HETATM    1  C   UNL     1     -10.227  19.272  68.208  1.00  0.00    -0.418 C  
HETATM    2  O   UNL     1     -10.311  17.959  68.732  1.00  0.00    -0.366 OA 
ENDROOT
BRANCH   2   3
HETATM    3  P   UNL     1      -9.672  16.618  67.845  1.00  0.00    -0.255 P  
HETATM    4  S   UNL     1      -7.776  17.215  68.192  1.00  0.00    -0.212 S  
BRANCH   3   5
HETATM    5  N   UNL     1     -10.182  15.638  69.148  1.00  0.00    -0.218 NA 
HETATM    6  H   UNL     1      -9.466  15.157  69.691  1.00  0.00     0.000 HD 
BRANCH   5   7
HETATM    7  C   UNL     1     -11.583  15.445  69.536  1.00  0.00    -0.332 C  
HETATM    8  C   UNL     1     -12.065  14.050  69.129  1.00  0.00    -0.375 C  
HETATM    9  C   UNL     1     -11.820  15.638  71.037  1.00  0.00    -0.442 C  
ENDBRANCH   5   7
ENDBRANCH   3   5
BRANCH   3  10
HETATM   10  O   UNL     1      -9.034  15.277  66.957  1.00  0.00    -0.204 OA 
BRANCH  10  11
HETATM   11  C   UNL     1      -9.833  14.506  66.145  1.00  0.00    -0.318 A  
HETATM   12  C   UNL     1     -10.697  15.044  65.191  1.00  0.00    -0.434 A  
HETATM   13  C   UNL     1     -11.614  14.236  64.512  1.00  0.00    -0.397 A  
HETATM   14  C   UNL     1     -11.607  12.861  64.718  1.00  0.00    -0.331 A  
HETATM   15  C   UNL     1     -10.696  12.293  65.598  1.00  0.00    -0.302 A  
HETATM   16 CL   UNL     1     -12.727  11.871  63.871  1.00  0.00    -0.488 Cl 
HETATM   17  C   UNL     1      -9.819  13.115  66.322  1.00  0.00    -0.283 A  
HETATM   18 CL   UNL     1      -8.710  12.360  67.406  1.00  0.00    -0.174 Cl 
ENDBRANCH  10  11
ENDBRANCH   3  10
ENDBRANCH   2   3
TORSDOF 5
ENDMDL
MODEL       44
REMARK 921   NORMALIZED FREE ENERGY PREDICTED BY IDOCK:   -4.47 KCAL/MOL
REMARK 922        TOTAL FREE ENERGY PREDICTED BY IDOCK:   -6.19 KCAL/MOL
REMARK 923 INTER-LIGAND FREE ENERGY PREDICTED BY IDOCK:   -5.69 KCAL/MOL
REMARK 924 INTRA-LIGAND FREE ENERGY PREDICTED BY IDOCK:   -0.50 KCAL/MOL
REMARK 927      BINDING AFFINITY PREDICTED BY RF-SCORE:    0.00 PKD
ROOT
HETATM    1  C   UNL     1      -7.711  10.179  68.359  1.00  0.00    -0.089 C  
HETATM    2  O   UNL     1      -8.353   9.654  69.508  1.00  0.00    -0.124 OA 
ENDROOT
BRANCH   2   3
HETATM    3  P   UNL     1     -10.047   9.896  69.752  1.00  0.00    -0.246 P  
HETATM    4  S   UNL     1     -10.437   9.573  67.798  1.00  0.00    -0.259 S  
BRANCH   3   5
HETATM    5  N   UNL     1     -10.046   8.392  70.563  1.00  0.00    -0.188 NA 
HETATM    6  H   UNL     1      -9.147   8.011  70.858  1.00  0.00     0.000 HD 
BRANCH   5   7
HETATM    7  C   UNL     1     -11.253   7.615  70.861  1.00  0.00    -0.268 C  
HETATM    8  C   UNL     1     -11.352   6.400  69.934  1.00  0.00    -0.500 C  
HETATM    9  C   UNL     1     -11.313   7.139  72.316  1.00  0.00    -0.303 C  
ENDBRANCH   5   7
ENDBRANCH   3   5
BRANCH   3  10
HETATM   10  O   UNL     1     -11.743  10.138  69.998  1.00  0.00    -0.256 OA 
BRANCH  10  11
HETATM   11  C   UNL     1     -12.236  11.326  70.486  1.00  0.00    -0.383 A  
HETATM   12  C   UNL     1     -11.890  12.571  69.960  1.00  0.00    -0.363 A  
HETATM   13  C   UNL     1     -12.277  13.754  70.596  1.00  0.00    -0.434 A  
HETATM   14  C   UNL     1     -13.097  13.699  71.716  1.00  0.00    -0.382 A  
HETATM   15  C   UNL     1     -13.528  12.474  72.206  1.00  0.00    -0.490 A  
HETATM   16 CL   UNL     1     -13.581  15.158  72.485  1.00  0.00    -0.537 Cl 
HETATM   17  C   UNL     1     -13.087  11.287  71.601  1.00  0.00    -0.408 A  
HETATM   18 CL   UNL     1     -13.647   9.790  72.251  1.00  0.00    -0.467 Cl 
ENDBRANCH  10  11
ENDBRANCH   3  10
ENDBRANCH   2   3
TORSDOF 5
ENDMDL
MODEL       45
REMARK 921   NORMALIZED FREE ENERGY PREDICTED BY IDOCK:   -4.46 KCAL/MOL
REMARK 922        TOTAL FREE ENERGY PREDICTED BY IDOCK:   -6.18 KCAL/MOL
REMARK 923 INTER-LIGAND FREE ENERGY PREDICTED BY IDOCK:   -5.89 KCAL/MOL
REMARK 924 INTRA-LIGAND FREE ENERGY PREDICTED BY IDOCK:   -0.30 KCAL/MOL
REMARK 927      BINDING AFFINITY PREDICTED BY RF-SCORE:    0.00 PKD
ROOT
HETATM    1  C   UNL     1      -8.550  11.506  66.515  1.00  0.00    -0.172 C  
HETATM    2  O   UNL     1      -8.419  12.883  66.821  1.00  0.00    -0.137 OA 
ENDROOT
BRANCH   2   3
HETATM    3  P   UNL     1      -9.795  13.805  67.320  1.00  0.00    -0.252 P  
HETATM    4  S   UNL     1      -9.081  15.467  66.424  1.00  0.00    -0.321 S  
BRANCH   3   5
HETATM    5  N   UNL     1     -10.689  12.908  66.173  1.00  0.00    -0.269 NA 
HETATM    6  H   UNL     1     -10.832  11.915  66.351  1.00  0.00     0.000 HD 
BRANCH   5   7
HETATM    7  C   UNL     1     -11.264  13.476  64.949  1.00  0.00    -0.342 C  
HETATM    8  C   UNL     1     -10.966  12.575  63.748  1.00  0.00    -0.496 C  
HETATM    9  C   UNL     1     -12.777  13.696  65.046  1.00  0.00    -0.384 C  
ENDBRANCH   5   7
ENDBRANCH   3   5
BRANCH   3  10
HETATM   10  O   UNL     1     -11.171  14.726  67.820  1.00  0.00    -0.288 OA 
BRANCH  10  11
HETATM   11  C   UNL     1     -11.529  14.824  69.145  1.00  0.00    -0.299 A  
HETATM   12  C   UNL     1     -12.268  13.847  69.810  1.00  0.00    -0.388 A  
HETATM   13  C   UNL     1     -12.756  14.067  71.102  1.00  0.00    -0.436 A  
HETATM   14  C   UNL     1     -12.424  15.237  71.774  1.00  0.00    -0.359 A  
HETATM   15  C   UNL     1     -11.615  16.186  71.165  1.00  0.00    -0.453 A  
HETATM   16 CL   UNL     1     -13.015  15.497  73.367  1.00  0.00    -0.621 Cl 
HETATM   17  C   UNL     1     -11.179  15.987  69.846  1.00  0.00    -0.361 A  
HETATM   18 CL   UNL     1     -10.179  17.199  69.132  1.00  0.00    -0.307 Cl 
ENDBRANCH  10  11
ENDBRANCH   3  10
ENDBRANCH   2   3
TORSDOF 5
ENDMDL
MODEL       46
REMARK 921   NORMALIZED FREE ENERGY PREDICTED BY IDOCK:   -4.43 KCAL/MOL
REMARK 922        TOTAL FREE ENERGY PREDICTED BY IDOCK:   -6.15 KCAL/MOL
REMARK 923 INTER-LIGAND FREE ENERGY PREDICTED BY IDOCK:   -5.78 KCAL/MOL
REMARK 924 INTRA-LIGAND FREE ENERGY PREDICTED BY IDOCK:   -0.37 KCAL/MOL
REMARK 927      BINDING AFFINITY PREDICTED BY RF-SCORE:    0.00 PKD
ROOT
HETATM    1  C   UNL     1      -8.891   8.862  65.281  1.00  0.00    -0.184 C  
HETATM    2  O   UNL     1      -8.939   9.558  66.514  1.00  0.00    -0.142 OA 
ENDROOT
BRANCH   2   3
HETATM    3  P   UNL     1     -10.184  10.720  66.816  1.00  0.00    -0.246 P  
HETATM    4  S   UNL     1      -8.829  12.197  67.056  1.00  0.00    -0.207 S  
BRANCH   3   5
HETATM    5  N   UNL     1     -10.567  10.596  65.156  1.00  0.00    -0.195 NA 
HETATM    6  H   UNL     1     -10.738   9.666  64.774  1.00  0.00     0.000 HD 
BRANCH   5   7
HETATM    7  C   UNL     1     -10.667  11.741  64.245  1.00  0.00    -0.342 C  
HETATM    8  C   UNL     1      -9.694  11.581  63.074  1.00  0.00    -0.382 C  
HETATM    9  C   UNL     1     -12.082  11.946  63.695  1.00  0.00    -0.580 C  
ENDBRANCH   5   7
ENDBRANCH   3   5
BRANCH   3  10
HETATM   10  O   UNL     1     -11.429  11.882  67.118  1.00  0.00    -0.338 OA 
BRANCH  10  11
HETATM   11  C   UNL     1     -11.744  12.283  68.397  1.00  0.00    -0.337 A  
HETATM   12  C   UNL     1     -11.917  11.392  69.455  1.00  0.00    -0.409 A  
HETATM   13  C   UNL     1     -12.406  11.827  70.691  1.00  0.00    -0.421 A  
HETATM   14  C   UNL     1     -12.637  13.180  70.903  1.00  0.00    -0.295 A  
HETATM   15  C   UNL     1     -12.387  14.098  69.892  1.00  0.00    -0.382 A  
HETATM   16 CL   UNL     1     -13.224  13.711  72.429  1.00  0.00    -0.568 Cl 
HETATM   17  C   UNL     1     -11.955  13.649  68.634  1.00  0.00    -0.360 A  
HETATM   18 CL   UNL     1     -11.664  14.828  67.409  1.00  0.00    -0.392 Cl 
ENDBRANCH  10  11
ENDBRANCH   3  10
ENDBRANCH   2   3
TORSDOF 5
ENDMDL
MODEL       47
REMARK 921   NORMALIZED FREE ENERGY PREDICTED BY IDOCK:   -4.42 KCAL/MOL
REMARK 922        TOTAL FREE ENERGY PREDICTED BY IDOCK:   -6.13 KCAL/MOL
REMARK 923 INTER-LIGAND FREE ENERGY PREDICTED BY IDOCK:   -5.72 KCAL/MOL
REMARK 924 INTRA-LIGAND FREE ENERGY PREDICTED BY IDOCK:   -0.41 KCAL/MOL
REMARK 927      BINDING AFFINITY PREDICTED BY RF-SCORE:    0.00 PKD
ROOT
HETATM    1  C   UNL     1      -9.104  14.057  68.201  1.00  0.00    -0.192 C  
HETATM    2  O   UNL     1     -10.347  13.554  67.746  1.00  0.00    -0.234 OA 
ENDROOT
BRANCH   2   3
HETATM    3  P   UNL     1     -11.045  12.151  68.477  1.00  0.00    -0.296 P  
HETATM    4  S   UNL     1     -12.082  13.278  69.792  1.00  0.00    -0.249 S  
BRANCH   3   5
HETATM    5  N   UNL     1     -11.970  11.987  67.051  1.00  0.00    -0.606 NA 
HETATM    6  H   UNL     1     -12.931  11.658  67.142  1.00  0.00     0.000 HD 
BRANCH   5   7
HETATM    7  C   UNL     1     -11.472  12.290  65.706  1.00  0.00    -0.367 C  
HETATM    8  C   UNL     1     -10.648  11.120  65.163  1.00  0.00    -0.319 C  
HETATM    9  C   UNL     1     -12.593  12.615  64.713  1.00  0.00    -0.530 C  
ENDBRANCH   5   7
ENDBRANCH   3   5
BRANCH   3  10
HETATM   10  O   UNL     1     -11.742  10.746  69.209  1.00  0.00    -0.286 OA 
BRANCH  10  11
HETATM   11  C   UNL     1     -11.082  10.045  70.192  1.00  0.00    -0.310 A  
HETATM   12  C   UNL     1      -9.707   9.815  70.174  1.00  0.00    -0.299 A  
HETATM   13  C   UNL     1      -9.109   8.953  71.098  1.00  0.00    -0.315 A  
HETATM   14  C   UNL     1      -9.875   8.386  72.109  1.00  0.00    -0.302 A  
HETATM   15  C   UNL     1     -11.230   8.671  72.200  1.00  0.00    -0.438 A  
HETATM   16 CL   UNL     1      -9.131   7.338  73.250  1.00  0.00    -0.180 Cl 
HETATM   17  C   UNL     1     -11.837   9.488  71.234  1.00  0.00    -0.373 A  
HETATM   18 CL   UNL     1     -13.526   9.807  71.389  1.00  0.00    -0.423 Cl 
ENDBRANCH  10  11
ENDBRANCH   3  10
ENDBRANCH   2   3
TORSDOF 5
ENDMDL
MODEL       48
REMARK 921   NORMALIZED FREE ENERGY PREDICTED BY IDOCK:   -4.42 KCAL/MOL
REMARK 922        TOTAL FREE ENERGY PREDICTED BY IDOCK:   -6.13 KCAL/MOL
REMARK 923 INTER-LIGAND FREE ENERGY PREDICTED BY IDOCK:   -5.65 KCAL/MOL
REMARK 924 INTRA-LIGAND FREE ENERGY PREDICTED BY IDOCK:   -0.48 KCAL/MOL
REMARK 927      BINDING AFFINITY PREDICTED BY RF-SCORE:    0.00 PKD
ROOT
HETATM    1  C   UNL     1      -7.970   7.880  72.469  1.00  0.00    -0.120 C  
HETATM    2  O   UNL     1      -8.984   8.868  72.432  1.00  0.00    -0.383 OA 
ENDROOT
BRANCH   2   3
HETATM    3  P   UNL     1      -9.982   9.046  71.030  1.00  0.00    -0.305 P  
HETATM    4  S   UNL     1      -9.272   7.333  70.233  1.00  0.00    -0.154 S  
BRANCH   3   5
HETATM    5  N   UNL     1     -11.305   8.668  72.044  1.00  0.00    -0.341 NA 
HETATM    6  H   UNL     1     -11.128   8.579  73.044  1.00  0.00     0.000 HD 
BRANCH   5   7
HETATM    7  C   UNL     1     -12.676   8.465  71.568  1.00  0.00    -0.308 C  
HETATM    8  C   UNL     1     -13.013   6.972  71.522  1.00  0.00    -0.411 C  
HETATM    9  C   UNL     1     -13.720   9.187  72.426  1.00  0.00    -0.543 C  
ENDBRANCH   5   7
ENDBRANCH   3   5
BRANCH   3  10
HETATM   10  O   UNL     1     -10.980   9.226  69.629  1.00  0.00    -0.234 OA 
BRANCH  10  11
HETATM   11  C   UNL     1     -11.151  10.447  69.019  1.00  0.00    -0.248 A  
HETATM   12  C   UNL     1     -11.550  11.594  69.704  1.00  0.00    -0.401 A  
HETATM   13  C   UNL     1     -11.878  12.767  69.017  1.00  0.00    -0.344 A  
HETATM   14  C   UNL     1     -11.717  12.826  67.638  1.00  0.00    -0.367 A  
HETATM   15  C   UNL     1     -11.236  11.725  66.944  1.00  0.00    -0.387 A  
HETATM   16 CL   UNL     1     -12.108  14.275  66.801  1.00  0.00    -0.466 Cl 
HETATM   17  C   UNL     1     -10.967  10.531  67.631  1.00  0.00    -0.314 A  
HETATM   18 CL   UNL     1     -10.376   9.189  66.721  1.00  0.00    -0.325 Cl 
ENDBRANCH  10  11
ENDBRANCH   3  10
ENDBRANCH   2   3
TORSDOF 5
ENDMDL
MODEL       49
REMARK 921   NORMALIZED FREE ENERGY PREDICTED BY IDOCK:   -4.42 KCAL/MOL
REMARK 922        TOTAL FREE ENERGY PREDICTED BY IDOCK:   -6.13 KCAL/MOL
REMARK 923 INTER-LIGAND FREE ENERGY PREDICTED BY IDOCK:   -5.50 KCAL/MOL
REMARK 924 INTRA-LIGAND FREE ENERGY PREDICTED BY IDOCK:   -0.63 KCAL/MOL
REMARK 927      BINDING AFFINITY PREDICTED BY RF-SCORE:    0.00 PKD
ROOT
HETATM    1  C   UNL     1     -12.530  10.118  71.156  1.00  0.00    -0.387 C  
HETATM    2  O   UNL     1     -11.160   9.778  71.042  1.00  0.00    -0.325 OA 
ENDROOT
BRANCH   2   3
HETATM    3  P   UNL     1     -10.316  10.030  69.554  1.00  0.00    -0.265 P  
HETATM    4  S   UNL     1      -8.576   9.407  70.366  1.00  0.00    -0.225 S  
BRANCH   3   5
HETATM    5  N   UNL     1     -11.158   8.668  68.958  1.00  0.00    -0.421 NA 
HETATM    6  H   UNL     1     -12.169   8.744  68.847  1.00  0.00     0.000 HD 
BRANCH   5   7
HETATM    7  C   UNL     1     -10.521   7.397  68.598  1.00  0.00    -0.189 C  
HETATM    8  C   UNL     1     -10.910   6.301  69.593  1.00  0.00    -0.403 C  
HETATM    9  C   UNL     1     -10.872   6.934  67.180  1.00  0.00    -0.447 C  
ENDBRANCH   5   7
ENDBRANCH   3   5
BRANCH   3  10
HETATM   10  O   UNL     1      -9.472  10.282  68.064  1.00  0.00    -0.144 OA 
BRANCH  10  11
HETATM   11  C   UNL     1     -10.077  10.892  66.989  1.00  0.00    -0.205 A  
HETATM   12  C   UNL     1     -10.962  11.961  67.116  1.00  0.00    -0.319 A  
HETATM   13  C   UNL     1     -11.684  12.434  66.015  1.00  0.00    -0.469 A  
HETATM   14  C   UNL     1     -11.452  11.895  64.756  1.00  0.00    -0.260 A  
HETATM   15  C   UNL     1     -10.510  10.889  64.590  1.00  0.00    -0.384 A  
HETATM   16 CL   UNL     1     -12.332  12.489  63.404  1.00  0.00    -0.620 Cl 
HETATM   17  C   UNL     1      -9.833  10.377  65.707  1.00  0.00    -0.239 A  
HETATM   18 CL   UNL     1      -8.676   9.123  65.448  1.00  0.00    -0.199 Cl 
ENDBRANCH  10  11
ENDBRANCH   3  10
ENDBRANCH   2   3
TORSDOF 5
ENDMDL
MODEL       50
REMARK 921   NORMALIZED FREE ENERGY PREDICTED BY IDOCK:   -4.40 KCAL/MOL
REMARK 922        TOTAL FREE ENERGY PREDICTED BY IDOCK:   -6.11 KCAL/MOL
REMARK 923 INTER-LIGAND FREE ENERGY PREDICTED BY IDOCK:   -5.75 KCAL/MOL
REMARK 924 INTRA-LIGAND FREE ENERGY PREDICTED BY IDOCK:   -0.36 KCAL/MOL
REMARK 927      BINDING AFFINITY PREDICTED BY RF-SCORE:    0.00 PKD
ROOT
HETATM    1  C   UNL     1      -9.759   9.481  65.788  1.00  0.00    -0.287 C  
HETATM    2  O   UNL     1     -10.618  10.476  66.315  1.00  0.00    -0.212 OA 
ENDROOT
BRANCH   2   3
HETATM    3  P   UNL     1     -10.775  10.681  68.025  1.00  0.00    -0.277 P  
HETATM    4  S   UNL     1      -8.978  11.592  68.142  1.00  0.00    -0.186 S  
BRANCH   3   5
HETATM    5  N   UNL     1     -11.962  11.859  67.677  1.00  0.00    -0.583 NA 
HETATM    6  H   UNL     1     -12.942  11.586  67.756  1.00  0.00     0.000 HD 
BRANCH   5   7
HETATM    7  C   UNL     1     -11.663  13.236  67.273  1.00  0.00    -0.377 C  
HETATM    8  C   UNL     1     -12.503  13.633  66.056  1.00  0.00    -0.477 C  
HETATM    9  C   UNL     1     -11.899  14.252  68.396  1.00  0.00    -0.373 C  
ENDBRANCH   5   7
ENDBRANCH   3   5
BRANCH   3  10
HETATM   10  O   UNL     1     -10.933  10.884  69.736  1.00  0.00    -0.255 OA 
BRANCH  10  11
HETATM   11  C   UNL     1     -10.852   9.815  70.599  1.00  0.00    -0.329 A  
HETATM   12  C   UNL     1      -9.834   8.864  70.543  1.00  0.00    -0.242 A  
HETATM   13  C   UNL     1      -9.887   7.705  71.322  1.00  0.00    -0.187 A  
HETATM   14  C   UNL     1     -10.920   7.535  72.236  1.00  0.00    -0.262 A  
HETATM   15  C   UNL     1     -11.898   8.511  72.373  1.00  0.00    -0.437 A  
HETATM   16 CL   UNL     1     -10.973   6.114  73.202  1.00  0.00    -0.276 Cl 
HETATM   17  C   UNL     1     -11.873   9.644  71.545  1.00  0.00    -0.407 A  
HETATM   18 CL   UNL     1     -13.114  10.824  71.751  1.00  0.00    -0.583 Cl 
ENDBRANCH  10  11
ENDBRANCH   3  10
ENDBRANCH   2   3
TORSDOF 5
ENDMDL
MODEL       51
REMARK 921   NORMALIZED FREE ENERGY PREDICTED BY IDOCK:   -4.40 KCAL/MOL
REMARK 922        TOTAL FREE ENERGY PREDICTED BY IDOCK:   -6.10 KCAL/MOL
REMARK 923 INTER-LIGAND FREE ENERGY PREDICTED BY IDOCK:   -6.01 KCAL/MOL
REMARK 924 INTRA-LIGAND FREE ENERGY PREDICTED BY IDOCK:   -0.09 KCAL/MOL
REMARK 927      BINDING AFFINITY PREDICTED BY RF-SCORE:    0.00 PKD
ROOT
HETATM    1  C   UNL     1      -9.102  15.471  69.381  1.00  0.00    -0.280 C  
HETATM    2  O   UNL     1     -10.499  15.429  69.150  1.00  0.00    -0.216 OA 
ENDROOT
BRANCH   2   3
HETATM    3  P   UNL     1     -11.318  13.912  69.007  1.00  0.00    -0.313 P  
HETATM    4  S   UNL     1     -12.576  14.382  70.514  1.00  0.00    -0.341 S  
BRANCH   3   5
HETATM    5  N   UNL     1     -11.969  14.512  67.546  1.00  0.00    -0.534 NA 
HETATM    6  H   UNL     1     -12.750  15.165  67.605  1.00  0.00     0.000 HD 
BRANCH   5   7
HETATM    7  C   UNL     1     -11.478  14.148  66.213  1.00  0.00    -0.352 C  
HETATM    8  C   UNL     1     -12.615  13.585  65.358  1.00  0.00    -0.531 C  
HETATM    9  C   UNL     1     -10.830  15.323  65.474  1.00  0.00    -0.382 C  
ENDBRANCH   5   7
ENDBRANCH   3   5
BRANCH   3  10
HETATM   10  O   UNL     1     -12.136  12.395  68.864  1.00  0.00    -0.265 OA 
BRANCH  10  11
HETATM   11  C   UNL     1     -11.824  11.329  69.678  1.00  0.00    -0.360 A  
HETATM   12  C   UNL     1     -12.617  10.932  70.753  1.00  0.00    -0.470 A  
HETATM   13  C   UNL     1     -12.174   9.958  71.654  1.00  0.00    -0.482 A  
HETATM   14  C   UNL     1     -10.968   9.307  71.428  1.00  0.00    -0.359 A  
HETATM   15  C   UNL     1     -10.203   9.623  70.314  1.00  0.00    -0.333 A  
HETATM   16 CL   UNL     1     -10.435   8.101  72.530  1.00  0.00    -0.385 Cl 
HETATM   17  C   UNL     1     -10.623  10.644  69.446  1.00  0.00    -0.239 A  
HETATM   18 CL   UNL     1      -9.633  11.003  68.079  1.00  0.00    -0.167 Cl 
ENDBRANCH  10  11
ENDBRANCH   3  10
ENDBRANCH   2   3
TORSDOF 5
ENDMDL
MODEL       52
REMARK 921   NORMALIZED FREE ENERGY PREDICTED BY IDOCK:   -4.34 KCAL/MOL
REMARK 922        TOTAL FREE ENERGY PREDICTED BY IDOCK:   -6.03 KCAL/MOL
REMARK 923 INTER-LIGAND FREE ENERGY PREDICTED BY IDOCK:   -5.58 KCAL/MOL
REMARK 924 INTRA-LIGAND FREE ENERGY PREDICTED BY IDOCK:   -0.45 KCAL/MOL
REMARK 927      BINDING AFFINITY PREDICTED BY RF-SCORE:    0.00 PKD
ROOT
HETATM    1  C   UNL     1     -12.780  12.630  64.456  1.00  0.00    -0.357 C  
HETATM    2  O   UNL     1     -12.279  12.246  65.724  1.00  0.00    -0.622 OA 
ENDROOT
BRANCH   2   3
HETATM    3  P   UNL     1     -11.176  13.270  66.577  1.00  0.00    -0.326 P  
HETATM    4  S   UNL     1     -11.379  12.183  68.265  1.00  0.00    -0.316 S  
BRANCH   3   5
HETATM    5  N   UNL     1      -9.942  12.571  65.624  1.00  0.00    -0.279 NA 
HETATM    6  H   UNL     1      -9.442  13.177  64.974  1.00  0.00     0.000 HD 
BRANCH   5   7
HETATM    7  C   UNL     1      -9.557  11.158  65.681  1.00  0.00    -0.224 C  
HETATM    8  C   UNL     1      -9.676  10.512  64.298  1.00  0.00    -0.391 C  
HETATM    9  C   UNL     1      -8.135  10.947  66.210  1.00  0.00    -0.165 C  
ENDBRANCH   5   7
ENDBRANCH   3   5
BRANCH   3  10
HETATM   10  O   UNL     1     -10.074  14.295  67.429  1.00  0.00    -0.243 OA 
BRANCH  10  11
HETATM   11  C   UNL     1     -10.062  15.657  67.237  1.00  0.00    -0.255 A  
HETATM   12  C   UNL     1      -9.361  16.277  66.203  1.00  0.00    -0.374 A  
HETATM   13  C   UNL     1      -9.236  17.668  66.150  1.00  0.00    -0.145 A  
HETATM   14  C   UNL     1      -9.896  18.456  67.085  1.00  0.00    -0.320 A  
HETATM   15  C   UNL     1     -10.673  17.865  68.071  1.00  0.00    -0.307 A  
HETATM   16 CL   UNL     1      -9.750  20.167  67.006  1.00  0.00    -0.543 Cl 
HETATM   17  C   UNL     1     -10.745  16.466  68.157  1.00  0.00    -0.336 A  
HETATM   18 CL   UNL     1     -11.721  15.781  69.404  1.00  0.00    -0.374 Cl 
ENDBRANCH  10  11
ENDBRANCH   3  10
ENDBRANCH   2   3
TORSDOF 5
ENDMDL
MODEL       53
REMARK 921   NORMALIZED FREE ENERGY PREDICTED BY IDOCK:   -4.33 KCAL/MOL
REMARK 922        TOTAL FREE ENERGY PREDICTED BY IDOCK:   -6.01 KCAL/MOL
REMARK 923 INTER-LIGAND FREE ENERGY PREDICTED BY IDOCK:   -5.55 KCAL/MOL
REMARK 924 INTRA-LIGAND FREE ENERGY PREDICTED BY IDOCK:   -0.46 KCAL/MOL
REMARK 927      BINDING AFFINITY PREDICTED BY RF-SCORE:    0.00 PKD
ROOT
HETATM    1  C   UNL     1      -7.491   9.534  69.120  1.00  0.00    -0.074 C  
HETATM    2  O   UNL     1      -8.798   9.015  69.286  1.00  0.00    -0.135 OA 
ENDROOT
BRANCH   2   3
HETATM    3  P   UNL     1     -10.180  10.026  69.045  1.00  0.00    -0.233 P  
HETATM    4  S   UNL     1      -9.600  10.472  67.163  1.00  0.00    -0.171 S  
BRANCH   3   5
HETATM    5  N   UNL     1     -11.103   8.589  69.004  1.00  0.00    -0.417 NA 
HETATM    6  H   UNL     1     -12.113   8.668  69.120  1.00  0.00     0.000 HD 
BRANCH   5   7
HETATM    7  C   UNL     1     -10.536   7.250  68.814  1.00  0.00    -0.200 C  
HETATM    8  C   UNL     1     -11.138   6.265  69.819  1.00  0.00    -0.473 C  
HETATM    9  C   UNL     1     -10.746   6.709  67.396  1.00  0.00    -0.409 C  
ENDBRANCH   5   7
ENDBRANCH   3   5
BRANCH   3  10
HETATM   10  O   UNL     1     -11.562  11.038  68.804  1.00  0.00    -0.272 OA 
BRANCH  10  11
HETATM   11  C   UNL     1     -11.994  11.910  69.777  1.00  0.00    -0.307 A  
HETATM   12  C   UNL     1     -12.597  11.493  70.964  1.00  0.00    -0.457 A  
HETATM   13  C   UNL     1     -13.174  12.415  71.841  1.00  0.00    -0.486 A  
HETATM   14  C   UNL     1     -13.068  13.776  71.580  1.00  0.00    -0.357 A  
HETATM   15  C   UNL     1     -12.394  14.219  70.450  1.00  0.00    -0.419 A  
HETATM   16 CL   UNL     1     -13.768  14.906  72.670  1.00  0.00    -0.547 Cl 
HETATM   17  C   UNL     1     -11.870  13.287  69.541  1.00  0.00    -0.327 A  
HETATM   18 CL   UNL     1     -11.046  13.888  68.149  1.00  0.00    -0.266 Cl 
ENDBRANCH  10  11
ENDBRANCH   3  10
ENDBRANCH   2   3
TORSDOF 5
ENDMDL
MODEL       54
REMARK 921   NORMALIZED FREE ENERGY PREDICTED BY IDOCK:   -4.31 KCAL/MOL
REMARK 922        TOTAL FREE ENERGY PREDICTED BY IDOCK:   -5.99 KCAL/MOL
REMARK 923 INTER-LIGAND FREE ENERGY PREDICTED BY IDOCK:   -5.62 KCAL/MOL
REMARK 924 INTRA-LIGAND FREE ENERGY PREDICTED BY IDOCK:   -0.37 KCAL/MOL
REMARK 927      BINDING AFFINITY PREDICTED BY RF-SCORE:    0.00 PKD
ROOT
HETATM    1  C   UNL     1      -7.218  16.588  69.188  1.00  0.00    -0.226 C  
HETATM    2  O   UNL     1      -8.029  17.312  68.281  1.00  0.00    -0.224 OA 
ENDROOT
BRANCH   2   3
HETATM    3  P   UNL     1      -9.161  16.486  67.267  1.00  0.00    -0.223 P  
HETATM    4  S   UNL     1     -10.691  16.936  68.505  1.00  0.00    -0.340 S  
BRANCH   3   5
HETATM    5  N   UNL     1      -8.959  17.772  66.160  1.00  0.00    -0.491 NA 
HETATM    6  H   UNL     1      -8.811  17.538  65.179  1.00  0.00     0.000 HD 
BRANCH   5   7
HETATM    7  C   UNL     1      -8.986  19.191  66.531  1.00  0.00    -0.341 C  
HETATM    8  C   UNL     1      -7.795  19.929  65.914  1.00  0.00    -0.313 C  
HETATM    9  C   UNL     1     -10.281  19.893  66.113  1.00  0.00    -0.611 C  
ENDBRANCH   5   7
ENDBRANCH   3   5
BRANCH   3  10
HETATM   10  O   UNL     1     -10.293  15.660  66.252  1.00  0.00    -0.281 OA 
BRANCH  10  11
HETATM   11  C   UNL     1     -10.272  14.291  66.117  1.00  0.00    -0.307 A  
HETATM   12  C   UNL     1      -9.452  13.460  66.881  1.00  0.00    -0.253 A  
HETATM   13  C   UNL     1      -9.337  12.098  66.591  1.00  0.00    -0.226 A  
HETATM   14  C   UNL     1     -10.118  11.537  65.588  1.00  0.00    -0.237 A  
HETATM   15  C   UNL     1     -11.008  12.327  64.873  1.00  0.00    -0.344 A  
HETATM   16 CL   UNL     1      -9.983   9.858  65.246  1.00  0.00    -0.380 Cl 
HETATM   17  C   UNL     1     -11.075  13.706  65.127  1.00  0.00    -0.318 A  
HETATM   18 CL   UNL     1     -12.193  14.645  64.207  1.00  0.00    -0.500 Cl 
ENDBRANCH  10  11
ENDBRANCH   3  10
ENDBRANCH   2   3
TORSDOF 5
ENDMDL
MODEL       55
REMARK 921   NORMALIZED FREE ENERGY PREDICTED BY IDOCK:   -4.31 KCAL/MOL
REMARK 922        TOTAL FREE ENERGY PREDICTED BY IDOCK:   -5.98 KCAL/MOL
REMARK 923 INTER-LIGAND FREE ENERGY PREDICTED BY IDOCK:   -5.57 KCAL/MOL
REMARK 924 INTRA-LIGAND FREE ENERGY PREDICTED BY IDOCK:   -0.41 KCAL/MOL
REMARK 927      BINDING AFFINITY PREDICTED BY RF-SCORE:    0.00 PKD
ROOT
HETATM    1  C   UNL     1      -7.266  13.143  67.407  1.00  0.00    -0.110 C  
HETATM    2  O   UNL     1      -8.457  12.511  66.972  1.00  0.00    -0.181 OA 
ENDROOT
BRANCH   2   3
HETATM    3  P   UNL     1     -10.000  13.137  67.436  1.00  0.00    -0.238 P  
HETATM    4  S   UNL     1      -9.989  14.461  65.912  1.00  0.00    -0.323 S  
BRANCH   3   5
HETATM    5  N   UNL     1     -10.658  11.664  66.873  1.00  0.00    -0.230 NA 
HETATM    6  H   UNL     1     -11.574  11.387  67.224  1.00  0.00     0.000 HD 
BRANCH   5   7
HETATM    7  C   UNL     1      -9.990  10.774  65.919  1.00  0.00    -0.250 C  
HETATM    8  C   UNL     1     -10.154   9.312  66.343  1.00  0.00    -0.337 C  
HETATM    9  C   UNL     1     -10.505  10.940  64.486  1.00  0.00    -0.393 C  
ENDBRANCH   5   7
ENDBRANCH   3   5
BRANCH   3  10
HETATM   10  O   UNL     1     -11.545  13.763  67.901  1.00  0.00    -0.301 OA 
BRANCH  10  11
HETATM   11  C   UNL     1     -11.824  14.091  69.208  1.00  0.00    -0.344 A  
HETATM   12  C   UNL     1     -12.229  13.156  70.160  1.00  0.00    -0.360 A  
HETATM   13  C   UNL     1     -12.669  13.559  71.425  1.00  0.00    -0.423 A  
HETATM   14  C   UNL     1     -12.616  14.902  71.777  1.00  0.00    -0.331 A  
HETATM   15  C   UNL     1     -12.132  15.842  70.877  1.00  0.00    -0.459 A  
HETATM   16 CL   UNL     1     -13.144  15.391  73.338  1.00  0.00    -0.618 Cl 
HETATM   17  C   UNL     1     -11.750  15.439  69.588  1.00  0.00    -0.338 A  
HETATM   18 CL   UNL     1     -11.161  16.646  68.504  1.00  0.00    -0.339 Cl 
ENDBRANCH  10  11
ENDBRANCH   3  10
ENDBRANCH   2   3
TORSDOF 5
ENDMDL
MODEL       56
REMARK 921   NORMALIZED FREE ENERGY PREDICTED BY IDOCK:   -4.28 KCAL/MOL
REMARK 922        TOTAL FREE ENERGY PREDICTED BY IDOCK:   -5.95 KCAL/MOL
REMARK 923 INTER-LIGAND FREE ENERGY PREDICTED BY IDOCK:   -5.71 KCAL/MOL
REMARK 924 INTRA-LIGAND FREE ENERGY PREDICTED BY IDOCK:   -0.24 KCAL/MOL
REMARK 927      BINDING AFFINITY PREDICTED BY RF-SCORE:    0.00 PKD
ROOT
HETATM    1  C   UNL     1      -9.914   7.123  73.689  1.00  0.00    -0.325 C  
HETATM    2  O   UNL     1      -9.382   7.935  72.658  1.00  0.00    -0.170 OA 
ENDROOT
BRANCH   2   3
HETATM    3  P   UNL     1     -10.433   8.719  71.529  1.00  0.00    -0.355 P  
HETATM    4  S   UNL     1      -8.875   9.264  70.367  1.00  0.00    -0.246 S  
BRANCH   3   5
HETATM    5  N   UNL     1     -10.939   7.155  71.064  1.00  0.00    -0.247 NA 
HETATM    6  H   UNL     1     -11.758   6.762  71.527  1.00  0.00     0.000 HD 
BRANCH   5   7
HETATM    7  C   UNL     1     -10.272   6.343  70.041  1.00  0.00    -0.180 C  
HETATM    8  C   UNL     1     -10.017   4.926  70.563  1.00  0.00    -0.311 C  
HETATM    9  C   UNL     1     -11.066   6.258  68.734  1.00  0.00    -0.424 C  
ENDBRANCH   5   7
ENDBRANCH   3   5
BRANCH   3  10
HETATM   10  O   UNL     1     -11.484   9.503  70.401  1.00  0.00    -0.254 OA 
BRANCH  10  11
HETATM   11  C   UNL     1     -12.047  10.729  70.674  1.00  0.00    -0.370 A  
HETATM   12  C   UNL     1     -11.673  11.902  70.020  1.00  0.00    -0.366 A  
HETATM   13  C   UNL     1     -12.144  13.147  70.449  1.00  0.00    -0.392 A  
HETATM   14  C   UNL     1     -13.071  13.215  71.482  1.00  0.00    -0.315 A  
HETATM   15  C   UNL     1     -13.525  12.053  72.090  1.00  0.00    -0.338 A  
HETATM   16 CL   UNL     1     -13.657  14.747  71.996  1.00  0.00    -0.453 Cl 
HETATM   17  C   UNL     1     -13.003  10.811  71.696  1.00  0.00    -0.476 A  
HETATM   18 CL   UNL     1     -13.596   9.396  72.487  1.00  0.00    -0.493 Cl 
ENDBRANCH  10  11
ENDBRANCH   3  10
ENDBRANCH   2   3
TORSDOF 5
ENDMDL
MODEL       57
REMARK 921   NORMALIZED FREE ENERGY PREDICTED BY IDOCK:   -4.27 KCAL/MOL
REMARK 922        TOTAL FREE ENERGY PREDICTED BY IDOCK:   -5.94 KCAL/MOL
REMARK 923 INTER-LIGAND FREE ENERGY PREDICTED BY IDOCK:   -5.48 KCAL/MOL
REMARK 924 INTRA-LIGAND FREE ENERGY PREDICTED BY IDOCK:   -0.46 KCAL/MOL
REMARK 927      BINDING AFFINITY PREDICTED BY RF-SCORE:    0.00 PKD
ROOT
HETATM    1  C   UNL     1     -12.353  12.319  63.783  1.00  0.00    -0.538 C  
HETATM    2  O   UNL     1     -12.250  12.761  65.125  1.00  0.00    -0.426 OA 
ENDROOT
BRANCH   2   3
HETATM    3  P   UNL     1     -11.219  11.937  66.242  1.00  0.00    -0.273 P  
HETATM    4  S   UNL     1     -10.314  10.922  64.751  1.00  0.00    -0.300 S  
BRANCH   3   5
HETATM    5  N   UNL     1     -10.415  13.430  66.452  1.00  0.00    -0.282 NA 
HETATM    6  H   UNL     1      -9.413  13.409  66.639  1.00  0.00     0.000 HD 
BRANCH   5   7
HETATM    7  C   UNL     1     -11.073  14.738  66.381  1.00  0.00    -0.340 C  
HETATM    8  C   UNL     1     -11.374  15.265  67.786  1.00  0.00    -0.331 C  
HETATM    9  C   UNL     1     -10.248  15.782  65.622  1.00  0.00    -0.407 C  
ENDBRANCH   5   7
ENDBRANCH   3   5
BRANCH   3  10
HETATM   10  O   UNL     1     -10.189  11.112  67.361  1.00  0.00    -0.181 OA 
BRANCH  10  11
HETATM   11  C   UNL     1     -10.692  10.503  68.488  1.00  0.00    -0.224 A  
HETATM   12  C   UNL     1     -11.430  11.181  69.458  1.00  0.00    -0.374 A  
HETATM   13  C   UNL     1     -11.771  10.566  70.666  1.00  0.00    -0.453 A  
HETATM   14  C   UNL     1     -11.453   9.229  70.872  1.00  0.00    -0.303 A  
HETATM   15  C   UNL     1     -10.797   8.507  69.884  1.00  0.00    -0.205 A  
HETATM   16 CL   UNL     1     -11.887   8.472  72.353  1.00  0.00    -0.452 Cl 
HETATM   17  C   UNL     1     -10.403   9.147  68.699  1.00  0.00    -0.209 A  
HETATM   18 CL   UNL     1      -9.585   8.208  67.504  1.00  0.00    -0.183 Cl 
ENDBRANCH  10  11
ENDBRANCH   3  10
ENDBRANCH   2   3
TORSDOF 5
ENDMDL
MODEL       58
REMARK 921   NORMALIZED FREE ENERGY PREDICTED BY IDOCK:   -4.26 KCAL/MOL
REMARK 922        TOTAL FREE ENERGY PREDICTED BY IDOCK:   -5.92 KCAL/MOL
REMARK 923 INTER-LIGAND FREE ENERGY PREDICTED BY IDOCK:   -5.40 KCAL/MOL
REMARK 924 INTRA-LIGAND FREE ENERGY PREDICTED BY IDOCK:   -0.52 KCAL/MOL
REMARK 927      BINDING AFFINITY PREDICTED BY RF-SCORE:    0.00 PKD
ROOT
HETATM    1  C   UNL     1     -10.036  11.264  63.347  1.00  0.00    -0.400 C  
HETATM    2  O   UNL     1     -10.906  11.603  64.412  1.00  0.00    -0.305 OA 
ENDROOT
BRANCH   2   3
HETATM    3  P   UNL     1     -10.328  11.624  66.042  1.00  0.00    -0.262 P  
HETATM    4  S   UNL     1      -8.740  10.476  65.557  1.00  0.00    -0.190 S  
BRANCH   3   5
HETATM    5  N   UNL     1      -9.920  13.261  65.773  1.00  0.00    -0.367 NA 
HETATM    6  H   UNL     1      -9.084  13.459  65.223  1.00  0.00     0.000 HD 
BRANCH   5   7
HETATM    7  C   UNL     1     -10.694  14.398  66.281  1.00  0.00    -0.307 C  
HETATM    8  C   UNL     1     -10.705  15.539  65.260  1.00  0.00    -0.440 C  
HETATM    9  C   UNL     1     -12.138  14.028  66.632  1.00  0.00    -0.487 C  
ENDBRANCH   5   7
ENDBRANCH   3   5
BRANCH   3  10
HETATM   10  O   UNL     1      -9.751  11.645  67.673  1.00  0.00    -0.175 OA 
BRANCH  10  11
HETATM   11  C   UNL     1     -10.434  11.011  68.686  1.00  0.00    -0.192 A  
HETATM   12  C   UNL     1     -11.787  11.225  68.945  1.00  0.00    -0.413 A  
HETATM   13  C   UNL     1     -12.394  10.695  70.088  1.00  0.00    -0.370 A  
HETATM   14  C   UNL     1     -11.668   9.864  70.932  1.00  0.00    -0.364 A  
HETATM   15  C   UNL     1     -10.343   9.564  70.646  1.00  0.00    -0.369 A  
HETATM   16 CL   UNL     1     -12.423   9.203  72.327  1.00  0.00    -0.428 Cl 
HETATM   17  C   UNL     1      -9.721  10.149  69.531  1.00  0.00    -0.229 A  
HETATM   18 CL   UNL     1      -8.072   9.748  69.222  1.00  0.00    -0.104 Cl 
ENDBRANCH  10  11
ENDBRANCH   3  10
ENDBRANCH   2   3
TORSDOF 5
ENDMDL
MODEL       59
REMARK 921   NORMALIZED FREE ENERGY PREDICTED BY IDOCK:   -4.24 KCAL/MOL
REMARK 922        TOTAL FREE ENERGY PREDICTED BY IDOCK:   -5.90 KCAL/MOL
REMARK 923 INTER-LIGAND FREE ENERGY PREDICTED BY IDOCK:   -5.45 KCAL/MOL
REMARK 924 INTRA-LIGAND FREE ENERGY PREDICTED BY IDOCK:   -0.46 KCAL/MOL
REMARK 927      BINDING AFFINITY PREDICTED BY RF-SCORE:    0.00 PKD
ROOT
HETATM    1  C   UNL     1      -8.513  10.002  63.857  1.00  0.00    -0.178 C  
HETATM    2  O   UNL     1      -8.578  10.748  65.059  1.00  0.00    -0.174 OA 
ENDROOT
BRANCH   2   3
HETATM    3  P   UNL     1     -10.101  11.062  65.815  1.00  0.00    -0.269 P  
HETATM    4  S   UNL     1     -10.908  11.678  64.071  1.00  0.00    -0.420 S  
BRANCH   3   5
HETATM    5  N   UNL     1     -10.282   9.367  65.931  1.00  0.00    -0.283 NA 
HETATM    6  H   UNL     1     -10.389   8.839  65.065  1.00  0.00     0.000 HD 
BRANCH   5   7
HETATM    7  C   UNL     1     -10.294   8.624  67.195  1.00  0.00    -0.299 C  
HETATM    8  C   UNL     1     -10.481   7.127  66.935  1.00  0.00    -0.364 C  
HETATM    9  C   UNL     1      -9.021   8.832  68.022  1.00  0.00    -0.141 C  
ENDBRANCH   5   7
ENDBRANCH   3   5
BRANCH   3  10
HETATM   10  O   UNL     1     -11.624  11.376  66.573  1.00  0.00    -0.408 OA 
BRANCH  10  11
HETATM   11  C   UNL     1     -11.711  12.089  67.747  1.00  0.00    -0.309 A  
HETATM   12  C   UNL     1     -11.676  11.492  69.006  1.00  0.00    -0.400 A  
HETATM   13  C   UNL     1     -11.941  12.233  70.162  1.00  0.00    -0.377 A  
HETATM   14  C   UNL     1     -12.152  13.603  70.070  1.00  0.00    -0.348 A  
HETATM   15  C   UNL     1     -12.103  14.235  68.835  1.00  0.00    -0.314 A  
HETATM   16 CL   UNL     1     -12.463  14.512  71.496  1.00  0.00    -0.401 Cl 
HETATM   17  C   UNL     1     -11.897  13.477  67.672  1.00  0.00    -0.363 A  
HETATM   18 CL   UNL     1     -11.850  14.309  66.161  1.00  0.00    -0.399 Cl 
ENDBRANCH  10  11
ENDBRANCH   3  10
ENDBRANCH   2   3
TORSDOF 5
ENDMDL
MODEL       60
REMARK 921   NORMALIZED FREE ENERGY PREDICTED BY IDOCK:   -4.23 KCAL/MOL
REMARK 922        TOTAL FREE ENERGY PREDICTED BY IDOCK:   -5.89 KCAL/MOL
REMARK 923 INTER-LIGAND FREE ENERGY PREDICTED BY IDOCK:   -5.42 KCAL/MOL
REMARK 924 INTRA-LIGAND FREE ENERGY PREDICTED BY IDOCK:   -0.46 KCAL/MOL
REMARK 927      BINDING AFFINITY PREDICTED BY RF-SCORE:    0.00 PKD
ROOT
HETATM    1  C   UNL     1     -13.760   9.266  72.025  1.00  0.00    -0.428 C  
HETATM    2  O   UNL     1     -12.766   9.211  71.018  1.00  0.00    -0.252 OA 
ENDROOT
BRANCH   2   3
HETATM    3  P   UNL     1     -12.079  10.665  70.383  1.00  0.00    -0.378 P  
HETATM    4  S   UNL     1     -13.071  11.793  71.732  1.00  0.00    -0.247 S  
BRANCH   3   5
HETATM    5  N   UNL     1     -10.604  10.156  71.079  1.00  0.00    -0.229 NA 
HETATM    6  H   UNL     1     -10.424  10.405  72.051  1.00  0.00     0.000 HD 
BRANCH   5   7
HETATM    7  C   UNL     1      -9.580   9.384  70.368  1.00  0.00    -0.266 C  
HETATM    8  C   UNL     1      -9.145   8.175  71.200  1.00  0.00    -0.183 C  
HETATM    9  C   UNL     1     -10.045   8.902  68.990  1.00  0.00    -0.205 C  
ENDBRANCH   5   7
ENDBRANCH   3   5
BRANCH   3  10
HETATM   10  O   UNL     1     -11.392  12.120  69.747  1.00  0.00    -0.209 OA 
BRANCH  10  11
HETATM   11  C   UNL     1     -11.644  12.531  68.459  1.00  0.00    -0.321 A  
HETATM   12  C   UNL     1     -11.602  11.672  67.361  1.00  0.00    -0.330 A  
HETATM   13  C   UNL     1     -11.692  12.166  66.056  1.00  0.00    -0.388 A  
HETATM   14  C   UNL     1     -11.921  13.520  65.845  1.00  0.00    -0.406 A  
HETATM   15  C   UNL     1     -12.055  14.382  66.926  1.00  0.00    -0.386 A  
HETATM   16 CL   UNL     1     -12.046  14.120  64.239  1.00  0.00    -0.490 Cl 
HETATM   17  C   UNL     1     -11.902  13.891  68.231  1.00  0.00    -0.376 A  
HETATM   18 CL   UNL     1     -12.073  15.003  69.540  1.00  0.00    -0.328 Cl 
ENDBRANCH  10  11
ENDBRANCH   3  10
ENDBRANCH   2   3
TORSDOF 5
ENDMDL
MODEL       61
REMARK 921   NORMALIZED FREE ENERGY PREDICTED BY IDOCK:   -4.23 KCAL/MOL
REMARK 922        TOTAL FREE ENERGY PREDICTED BY IDOCK:   -5.88 KCAL/MOL
REMARK 923 INTER-LIGAND FREE ENERGY PREDICTED BY IDOCK:   -5.34 KCAL/MOL
REMARK 924 INTRA-LIGAND FREE ENERGY PREDICTED BY IDOCK:   -0.54 KCAL/MOL
REMARK 927      BINDING AFFINITY PREDICTED BY RF-SCORE:    0.00 PKD
ROOT
HETATM    1  C   UNL     1      -8.854   7.193  69.484  1.00  0.00    -0.137 C  
HETATM    2  O   UNL     1      -8.961   8.601  69.381  1.00  0.00    -0.142 OA 
ENDROOT
BRANCH   2   3
HETATM    3  P   UNL     1     -10.064   9.316  68.258  1.00  0.00    -0.200 P  
HETATM    4  S   UNL     1      -9.999   7.690  67.065  1.00  0.00    -0.265 S  
BRANCH   3   5
HETATM    5  N   UNL     1     -11.273   9.075  69.442  1.00  0.00    -0.439 NA 
HETATM    6  H   UNL     1     -12.036   8.437  69.220  1.00  0.00     0.000 HD 
BRANCH   5   7
HETATM    7  C   UNL     1     -11.281   9.727  70.756  1.00  0.00    -0.348 C  
HETATM    8  C   UNL     1     -12.455  10.703  70.862  1.00  0.00    -0.495 C  
HETATM    9  C   UNL     1     -11.353   8.730  71.916  1.00  0.00    -0.431 C  
ENDBRANCH   5   7
ENDBRANCH   3   5
BRANCH   3  10
HETATM   10  O   UNL     1     -11.168  10.033  67.135  1.00  0.00    -0.129 OA 
BRANCH  10  11
HETATM   11  C   UNL     1     -11.040  11.344  66.737  1.00  0.00    -0.281 A  
HETATM   12  C   UNL     1     -11.469  12.422  67.511  1.00  0.00    -0.410 A  
HETATM   13  C   UNL     1     -11.478  13.721  66.994  1.00  0.00    -0.368 A  
HETATM   14  C   UNL     1     -10.966  13.962  65.724  1.00  0.00    -0.285 A  
HETATM   15  C   UNL     1     -10.452  12.917  64.970  1.00  0.00    -0.337 A  
HETATM   16 CL   UNL     1     -10.966  15.563  65.099  1.00  0.00    -0.409 Cl 
HETATM   17  C   UNL     1     -10.502  11.606  65.469  1.00  0.00    -0.273 A  
HETATM   18 CL   UNL     1      -9.854  10.341  64.490  1.00  0.00    -0.395 Cl 
ENDBRANCH  10  11
ENDBRANCH   3  10
ENDBRANCH   2   3
TORSDOF 5
ENDMDL
MODEL       62
REMARK 921   NORMALIZED FREE ENERGY PREDICTED BY IDOCK:   -4.21 KCAL/MOL
REMARK 922        TOTAL FREE ENERGY PREDICTED BY IDOCK:   -5.87 KCAL/MOL
REMARK 923 INTER-LIGAND FREE ENERGY PREDICTED BY IDOCK:   -5.46 KCAL/MOL
REMARK 924 INTRA-LIGAND FREE ENERGY PREDICTED BY IDOCK:   -0.40 KCAL/MOL
REMARK 927      BINDING AFFINITY PREDICTED BY RF-SCORE:    0.00 PKD
ROOT
HETATM    1  C   UNL     1      -7.017  16.949  66.498  1.00  0.00    -0.227 C  
HETATM    2  O   UNL     1      -8.198  17.382  67.150  1.00  0.00    -0.200 OA 
ENDROOT
BRANCH   2   3
HETATM    3  P   UNL     1      -9.562  16.327  67.285  1.00  0.00    -0.237 P  
HETATM    4  S   UNL     1      -9.107  15.884  69.201  1.00  0.00    -0.255 S  
BRANCH   3   5
HETATM    5  N   UNL     1     -10.529  17.736  67.266  1.00  0.00    -0.363 NA 
HETATM    6  H   UNL     1     -11.539  17.621  67.349  1.00  0.00     0.000 HD 
BRANCH   5   7
HETATM    7  C   UNL     1     -10.000  19.097  67.139  1.00  0.00    -0.356 C  
HETATM    8  C   UNL     1     -10.577  19.784  65.899  1.00  0.00    -0.557 C  
HETATM    9  C   UNL     1     -10.285  19.966  68.369  1.00  0.00    -0.557 C  
ENDBRANCH   5   7
ENDBRANCH   3   5
BRANCH   3  10
HETATM   10  O   UNL     1     -10.927  15.273  67.418  1.00  0.00    -0.309 OA 
BRANCH  10  11
HETATM   11  C   UNL     1     -10.782  13.904  67.404  1.00  0.00    -0.272 A  
HETATM   12  C   UNL     1     -10.010  13.227  66.461  1.00  0.00    -0.280 A  
HETATM   13  C   UNL     1     -10.032  11.832  66.378  1.00  0.00    -0.237 A  
HETATM   14  C   UNL     1     -10.760  11.098  67.307  1.00  0.00    -0.258 A  
HETATM   15  C   UNL     1     -11.466  11.747  68.310  1.00  0.00    -0.370 A  
HETATM   16 CL   UNL     1     -10.772   9.382  67.210  1.00  0.00    -0.314 Cl 
HETATM   17  C   UNL     1     -11.490  13.149  68.351  1.00  0.00    -0.315 A  
HETATM   18 CL   UNL     1     -12.387  13.908  69.615  1.00  0.00    -0.354 Cl 
ENDBRANCH  10  11
ENDBRANCH   3  10
ENDBRANCH   2   3
TORSDOF 5
ENDMDL
MODEL       63
REMARK 921   NORMALIZED FREE ENERGY PREDICTED BY IDOCK:   -4.20 KCAL/MOL
REMARK 922        TOTAL FREE ENERGY PREDICTED BY IDOCK:   -5.85 KCAL/MOL
REMARK 923 INTER-LIGAND FREE ENERGY PREDICTED BY IDOCK:   -5.40 KCAL/MOL
REMARK 924 INTRA-LIGAND FREE ENERGY PREDICTED BY IDOCK:   -0.45 KCAL/MOL
REMARK 927      BINDING AFFINITY PREDICTED BY RF-SCORE:    0.00 PKD
ROOT
HETATM    1  C   UNL     1      -5.550  18.067  67.541  1.00  0.00    -0.140 C  
HETATM    2  O   UNL     1      -6.522  17.554  66.648  1.00  0.00    -0.174 OA 
ENDROOT
BRANCH   2   3
HETATM    3  P   UNL     1      -7.945  16.780  67.253  1.00  0.00    -0.198 P  
HETATM    4  S   UNL     1      -6.981  16.175  68.920  1.00  0.00    -0.173 S  
BRANCH   3   5
HETATM    5  N   UNL     1      -8.566  18.349  67.522  1.00  0.00    -0.256 NA 
HETATM    6  H   UNL     1      -7.912  19.078  67.805  1.00  0.00     0.000 HD 
BRANCH   5   7
HETATM    7  C   UNL     1      -9.978  18.714  67.373  1.00  0.00    -0.332 C  
HETATM    8  C   UNL     1     -10.267  20.043  68.075  1.00  0.00    -0.538 C  
HETATM    9  C   UNL     1     -10.417  18.817  65.908  1.00  0.00    -0.424 C  
ENDBRANCH   5   7
ENDBRANCH   3   5
BRANCH   3  10
HETATM   10  O   UNL     1      -9.370  16.006  67.857  1.00  0.00    -0.206 OA 
BRANCH  10  11
HETATM   11  C   UNL     1     -10.080  15.109  67.093  1.00  0.00    -0.239 A  
HETATM   12  C   UNL     1      -9.727  14.771  65.787  1.00  0.00    -0.347 A  
HETATM   13  C   UNL     1     -10.573  13.993  64.990  1.00  0.00    -0.426 A  
HETATM   14  C   UNL     1     -11.740  13.468  65.532  1.00  0.00    -0.340 A  
HETATM   15  C   UNL     1     -12.068  13.718  66.857  1.00  0.00    -0.454 A  
HETATM   16 CL   UNL     1     -12.769  12.500  64.552  1.00  0.00    -0.508 Cl 
HETATM   17  C   UNL     1     -11.247  14.550  67.634  1.00  0.00    -0.322 A  
HETATM   18 CL   UNL     1     -11.702  14.833  69.274  1.00  0.00    -0.326 Cl 
ENDBRANCH  10  11
ENDBRANCH   3  10
ENDBRANCH   2   3
TORSDOF 5
ENDMDL
MODEL       64
REMARK 921   NORMALIZED FREE ENERGY PREDICTED BY IDOCK:   -4.19 KCAL/MOL
REMARK 922        TOTAL FREE ENERGY PREDICTED BY IDOCK:   -5.84 KCAL/MOL
REMARK 923 INTER-LIGAND FREE ENERGY PREDICTED BY IDOCK:   -5.42 KCAL/MOL
REMARK 924 INTRA-LIGAND FREE ENERGY PREDICTED BY IDOCK:   -0.43 KCAL/MOL
REMARK 927      BINDING AFFINITY PREDICTED BY RF-SCORE:    0.00 PKD
ROOT
HETATM    1  C   UNL     1      -6.153  18.844  64.742  1.00  0.00    -0.229 C  
HETATM    2  O   UNL     1      -6.510  18.734  66.109  1.00  0.00    -0.186 OA 
ENDROOT
BRANCH   2   3
HETATM    3  P   UNL     1      -7.727  17.612  66.609  1.00  0.00    -0.295 P  
HETATM    4  S   UNL     1      -6.342  16.360  67.376  1.00  0.00    -0.183 S  
BRANCH   3   5
HETATM    5  N   UNL     1      -8.151  18.755  67.806  1.00  0.00    -0.252 NA 
HETATM    6  H   UNL     1      -7.713  18.669  68.723  1.00  0.00     0.000 HD 
BRANCH   5   7
HETATM    7  C   UNL     1      -9.103  19.850  67.599  1.00  0.00    -0.340 C  
HETATM    8  C   UNL     1      -9.722  19.767  66.202  1.00  0.00    -0.510 C  
HETATM    9  C   UNL     1     -10.225  19.872  68.643  1.00  0.00    -0.494 C  
ENDBRANCH   5   7
ENDBRANCH   3   5
BRANCH   3  10
HETATM   10  O   UNL     1      -8.945  16.489  67.109  1.00  0.00    -0.198 OA 
BRANCH  10  11
HETATM   11  C   UNL     1      -9.657  15.747  66.195  1.00  0.00    -0.332 A  
HETATM   12  C   UNL     1     -10.527  16.312  65.263  1.00  0.00    -0.324 A  
HETATM   13  C   UNL     1     -11.358  15.511  64.474  1.00  0.00    -0.322 A  
HETATM   14  C   UNL     1     -11.255  14.127  64.549  1.00  0.00    -0.337 A  
HETATM   15  C   UNL     1     -10.333  13.541  65.405  1.00  0.00    -0.329 A  
HETATM   16 CL   UNL     1     -12.269  13.148  63.566  1.00  0.00    -0.587 Cl 
HETATM   17  C   UNL     1      -9.545  14.349  66.239  1.00  0.00    -0.298 A  
HETATM   18 CL   UNL     1      -8.418  13.572  67.290  1.00  0.00    -0.199 Cl 
ENDBRANCH  10  11
ENDBRANCH   3  10
ENDBRANCH   2   3
TORSDOF 5
ENDMDL
MODEL       65
REMARK 921   NORMALIZED FREE ENERGY PREDICTED BY IDOCK:   -4.15 KCAL/MOL
REMARK 922        TOTAL FREE ENERGY PREDICTED BY IDOCK:   -5.79 KCAL/MOL
REMARK 923 INTER-LIGAND FREE ENERGY PREDICTED BY IDOCK:   -5.46 KCAL/MOL
REMARK 924 INTRA-LIGAND FREE ENERGY PREDICTED BY IDOCK:   -0.33 KCAL/MOL
REMARK 927      BINDING AFFINITY PREDICTED BY RF-SCORE:    0.00 PKD
ROOT
HETATM    1  C   UNL     1     -11.254  10.055  70.651  1.00  0.00    -0.350 C  
HETATM    2  O   UNL     1     -10.317  10.556  69.715  1.00  0.00    -0.232 OA 
ENDROOT
BRANCH   2   3
HETATM    3  P   UNL     1     -10.818  11.653  68.476  1.00  0.00    -0.250 P  
HETATM    4  S   UNL     1      -8.912  12.217  68.121  1.00  0.00    -0.191 S  
BRANCH   3   5
HETATM    5  N   UNL     1     -11.163  10.274  67.529  1.00  0.00    -0.432 NA 
HETATM    6  H   UNL     1     -12.141  10.013  67.406  1.00  0.00     0.000 HD 
BRANCH   5   7
HETATM    7  C   UNL     1     -10.144   9.441  66.883  1.00  0.00    -0.248 C  
HETATM    8  C   UNL     1     -10.508   7.959  67.001  1.00  0.00    -0.419 C  
HETATM    9  C   UNL     1      -9.936   9.789  65.405  1.00  0.00    -0.302 C  
ENDBRANCH   5   7
ENDBRANCH   3   5
BRANCH   3  10
HETATM   10  O   UNL     1     -11.319  12.751  67.236  1.00  0.00    -0.279 OA 
BRANCH  10  11
HETATM   11  C   UNL     1     -11.072  14.102  67.328  1.00  0.00    -0.305 A  
HETATM   12  C   UNL     1     -11.300  14.842  68.488  1.00  0.00    -0.314 A  
HETATM   13  C   UNL     1     -11.201  16.237  68.483  1.00  0.00    -0.359 A  
HETATM   14  C   UNL     1     -10.779  16.895  67.334  1.00  0.00    -0.241 A  
HETATM   15  C   UNL     1     -10.461  16.171  66.193  1.00  0.00    -0.334 A  
HETATM   16 CL   UNL     1     -10.645  18.608  67.338  1.00  0.00    -0.474 Cl 
HETATM   17  C   UNL     1     -10.621  14.777  66.185  1.00  0.00    -0.311 A  
HETATM   18 CL   UNL     1     -10.218  13.924  64.740  1.00  0.00    -0.416 Cl 
ENDBRANCH  10  11
ENDBRANCH   3  10
ENDBRANCH   2   3
TORSDOF 5
ENDMDL
MODEL       66
REMARK 921   NORMALIZED FREE ENERGY PREDICTED BY IDOCK:   -4.14 KCAL/MOL
REMARK 922        TOTAL FREE ENERGY PREDICTED BY IDOCK:   -5.77 KCAL/MOL
REMARK 923 INTER-LIGAND FREE ENERGY PREDICTED BY IDOCK:   -5.39 KCAL/MOL
REMARK 924 INTRA-LIGAND FREE ENERGY PREDICTED BY IDOCK:   -0.38 KCAL/MOL
REMARK 927      BINDING AFFINITY PREDICTED BY RF-SCORE:    0.00 PKD
ROOT
HETATM    1  C   UNL     1      -9.732  16.260  68.853  1.00  0.00    -0.248 C  
HETATM    2  O   UNL     1     -10.897  15.752  68.228  1.00  0.00    -0.278 OA 
ENDROOT
BRANCH   2   3
HETATM    3  P   UNL     1     -11.388  14.114  68.488  1.00  0.00    -0.326 P  
HETATM    4  S   UNL     1     -12.431  14.626  70.139  1.00  0.00    -0.286 S  
BRANCH   3   5
HETATM    5  N   UNL     1     -12.400  14.303  67.124  1.00  0.00    -0.586 NA 
HETATM    6  H   UNL     1     -13.368  14.580  67.284  1.00  0.00     0.000 HD 
BRANCH   5   7
HETATM    7  C   UNL     1     -11.965  14.092  65.740  1.00  0.00    -0.402 C  
HETATM    8  C   UNL     1     -10.440  13.976  65.668  1.00  0.00    -0.328 C  
HETATM    9  C   UNL     1     -12.592  12.850  65.099  1.00  0.00    -0.536 C  
ENDBRANCH   5   7
ENDBRANCH   3   5
BRANCH   3  10
HETATM   10  O   UNL     1     -11.879  12.475  68.749  1.00  0.00    -0.306 OA 
BRANCH  10  11
HETATM   11  C   UNL     1     -10.982  11.511  69.148  1.00  0.00    -0.224 A  
HETATM   12  C   UNL     1      -9.801  11.235  68.460  1.00  0.00    -0.198 A  
HETATM   13  C   UNL     1      -9.009  10.134  68.801  1.00  0.00    -0.147 A  
HETATM   14  C   UNL     1      -9.350   9.353  69.898  1.00  0.00    -0.214 A  
HETATM   15  C   UNL     1     -10.473   9.662  70.653  1.00  0.00    -0.379 A  
HETATM   16 CL   UNL     1      -8.365   8.009  70.321  1.00  0.00    -0.123 Cl 
HETATM   17  C   UNL     1     -11.298  10.731  70.270  1.00  0.00    -0.290 A  
HETATM   18 CL   UNL     1     -12.686  11.070  71.238  1.00  0.00    -0.518 Cl 
ENDBRANCH  10  11
ENDBRANCH   3  10
ENDBRANCH   2   3
TORSDOF 5
ENDMDL
MODEL       67
REMARK 921   NORMALIZED FREE ENERGY PREDICTED BY IDOCK:   -4.12 KCAL/MOL
REMARK 922        TOTAL FREE ENERGY PREDICTED BY IDOCK:   -5.75 KCAL/MOL
REMARK 923 INTER-LIGAND FREE ENERGY PREDICTED BY IDOCK:   -5.64 KCAL/MOL
REMARK 924 INTRA-LIGAND FREE ENERGY PREDICTED BY IDOCK:   -0.11 KCAL/MOL
REMARK 927      BINDING AFFINITY PREDICTED BY RF-SCORE:    0.00 PKD
ROOT
HETATM    1  C   UNL     1      -6.342  18.136  65.673  1.00  0.00    -0.253 C  
HETATM    2  O   UNL     1      -7.733  17.865  65.689  1.00  0.00    -0.541 OA 
ENDROOT
BRANCH   2   3
HETATM    3  P   UNL     1      -8.351  16.508  66.565  1.00  0.00    -0.332 P  
HETATM    4  S   UNL     1      -6.935  16.706  67.990  1.00  0.00    -0.152 S  
BRANCH   3   5
HETATM    5  N   UNL     1      -9.679  17.502  66.975  1.00  0.00    -0.274 NA 
HETATM    6  H   UNL     1     -10.606  17.077  66.985  1.00  0.00     0.000 HD 
BRANCH   5   7
HETATM    7  C   UNL     1      -9.571  18.924  67.314  1.00  0.00    -0.307 C  
HETATM    8  C   UNL     1     -10.532  19.754  66.458  1.00  0.00    -0.615 C  
HETATM    9  C   UNL     1      -9.847  19.209  68.794  1.00  0.00    -0.502 C  
ENDBRANCH   5   7
ENDBRANCH   3   5
BRANCH   3  10
HETATM   10  O   UNL     1      -8.970  15.150  67.440  1.00  0.00    -0.172 OA 
BRANCH  10  11
HETATM   11  C   UNL     1     -10.019  15.279  68.321  1.00  0.00    -0.222 A  
HETATM   12  C   UNL     1      -9.856  15.665  69.651  1.00  0.00    -0.280 A  
HETATM   13  C   UNL     1     -10.924  15.614  70.552  1.00  0.00    -0.371 A  
HETATM   14  C   UNL     1     -12.191  15.265  70.101  1.00  0.00    -0.364 A  
HETATM   15  C   UNL     1     -12.396  14.963  68.762  1.00  0.00    -0.007 A  
HETATM   16 CL   UNL     1     -13.503  15.218  71.211  1.00  0.00    -0.556 Cl 
HETATM   17  C   UNL     1     -11.309  14.956  67.875  1.00  0.00    -0.327 A  
HETATM   18 CL   UNL     1     -11.616  14.569  66.221  1.00  0.00    -0.364 Cl 
ENDBRANCH  10  11
ENDBRANCH   3  10
ENDBRANCH   2   3
TORSDOF 5
ENDMDL
MODEL       68
REMARK 921   NORMALIZED FREE ENERGY PREDICTED BY IDOCK:   -4.12 KCAL/MOL
REMARK 922        TOTAL FREE ENERGY PREDICTED BY IDOCK:   -5.75 KCAL/MOL
REMARK 923 INTER-LIGAND FREE ENERGY PREDICTED BY IDOCK:   -5.35 KCAL/MOL
REMARK 924 INTRA-LIGAND FREE ENERGY PREDICTED BY IDOCK:   -0.39 KCAL/MOL
REMARK 927      BINDING AFFINITY PREDICTED BY RF-SCORE:    0.00 PKD
ROOT
HETATM    1  C   UNL     1     -10.221  10.772  63.765  1.00  0.00    -0.288 C  
HETATM    2  O   UNL     1     -10.121  11.118  65.135  1.00  0.00    -0.248 OA 
ENDROOT
BRANCH   2   3
HETATM    3  P   UNL     1     -11.070  12.409  65.784  1.00  0.00    -0.344 P  
HETATM    4  S   UNL     1     -12.374  12.305  64.246  1.00  0.00    -0.394 S  
BRANCH   3   5
HETATM    5  N   UNL     1     -11.565  11.308  66.993  1.00  0.00    -0.480 NA 
HETATM    6  H   UNL     1     -12.290  10.632  66.754  1.00  0.00     0.000 HD 
BRANCH   5   7
HETATM    7  C   UNL     1     -11.013  11.273  68.351  1.00  0.00    -0.219 C  
HETATM    8  C   UNL     1     -12.140  11.251  69.387  1.00  0.00    -0.384 C  
HETATM    9  C   UNL     1     -10.091  10.074  68.590  1.00  0.00    -0.187 C  
ENDBRANCH   5   7
ENDBRANCH   3   5
BRANCH   3  10
HETATM   10  O   UNL     1     -12.020  13.702  66.434  1.00  0.00    -0.380 OA 
BRANCH  10  11
HETATM   11  C   UNL     1     -11.434  14.816  66.990  1.00  0.00    -0.353 A  
HETATM   12  C   UNL     1     -11.275  14.990  68.364  1.00  0.00    -0.303 A  
HETATM   13  C   UNL     1     -10.835  16.208  68.890  1.00  0.00    -0.305 A  
HETATM   14  C   UNL     1     -10.459  17.235  68.032  1.00  0.00    -0.375 A  
HETATM   15  C   UNL     1     -10.524  17.053  66.657  1.00  0.00    -0.253 A  
HETATM   16 CL   UNL     1      -9.906  18.725  68.684  1.00  0.00    -0.420 Cl 
HETATM   17  C   UNL     1     -11.025  15.850  66.136  1.00  0.00    -0.126 A  
HETATM   18 CL   UNL     1     -11.090  15.677  64.420  1.00  0.00    -0.293 Cl 
ENDBRANCH  10  11
ENDBRANCH   3  10
ENDBRANCH   2   3
TORSDOF 5
ENDMDL
MODEL       69
REMARK 921   NORMALIZED FREE ENERGY PREDICTED BY IDOCK:   -4.09 KCAL/MOL
REMARK 922        TOTAL FREE ENERGY PREDICTED BY IDOCK:   -5.71 KCAL/MOL
REMARK 923 INTER-LIGAND FREE ENERGY PREDICTED BY IDOCK:   -5.32 KCAL/MOL
REMARK 924 INTRA-LIGAND FREE ENERGY PREDICTED BY IDOCK:   -0.39 KCAL/MOL
REMARK 927      BINDING AFFINITY PREDICTED BY RF-SCORE:    0.00 PKD
ROOT
HETATM    1  C   UNL     1      -7.792  15.774  69.335  1.00  0.00    -0.210 C  
HETATM    2  O   UNL     1      -9.027  16.361  68.963  1.00  0.00    -0.249 OA 
ENDROOT
BRANCH   2   3
HETATM    3  P   UNL     1     -10.232  15.425  68.151  1.00  0.00    -0.236 P  
HETATM    4  S   UNL     1     -11.532  15.663  69.677  1.00  0.00    -0.369 S  
BRANCH   3   5
HETATM    5  N   UNL     1     -10.399  16.748  67.082  1.00  0.00    -0.296 NA 
HETATM    6  H   UNL     1     -10.939  16.605  66.229  1.00  0.00     0.000 HD 
BRANCH   5   7
HETATM    7  C   UNL     1      -9.816  18.073  67.313  1.00  0.00    -0.306 C  
HETATM    8  C   UNL     1      -8.827  18.425  66.199  1.00  0.00    -0.117 C  
HETATM    9  C   UNL     1     -10.871  19.180  67.414  1.00  0.00    -0.533 C  
ENDBRANCH   5   7
ENDBRANCH   3   5
BRANCH   3  10
HETATM   10  O   UNL     1     -11.438  14.488  67.337  1.00  0.00    -0.335 OA 
BRANCH  10  11
HETATM   11  C   UNL     1     -11.313  13.126  67.190  1.00  0.00    -0.316 A  
HETATM   12  C   UNL     1     -11.687  12.214  68.177  1.00  0.00    -0.402 A  
HETATM   13  C   UNL     1     -11.382  10.855  68.055  1.00  0.00    -0.382 A  
HETATM   14  C   UNL     1     -10.780  10.385  66.895  1.00  0.00    -0.207 A  
HETATM   15  C   UNL     1     -10.479  11.260  65.861  1.00  0.00    -0.314 A  
HETATM   16 CL   UNL     1     -10.420   8.711  66.745  1.00  0.00    -0.342 Cl 
HETATM   17  C   UNL     1     -10.732  12.632  66.013  1.00  0.00    -0.269 A  
HETATM   18 CL   UNL     1     -10.334  13.680  64.701  1.00  0.00    -0.437 Cl 
ENDBRANCH  10  11
ENDBRANCH   3  10
ENDBRANCH   2   3
TORSDOF 5
ENDMDL
MODEL       70
REMARK 921   NORMALIZED FREE ENERGY PREDICTED BY IDOCK:   -4.06 KCAL/MOL
REMARK 922        TOTAL FREE ENERGY PREDICTED BY IDOCK:   -5.66 KCAL/MOL
REMARK 923 INTER-LIGAND FREE ENERGY PREDICTED BY IDOCK:   -5.38 KCAL/MOL
REMARK 924 INTRA-LIGAND FREE ENERGY PREDICTED BY IDOCK:   -0.28 KCAL/MOL
REMARK 927      BINDING AFFINITY PREDICTED BY RF-SCORE:    0.00 PKD
ROOT
HETATM    1  C   UNL     1     -10.389  17.663  68.319  1.00  0.00    -0.384 C  
HETATM    2  O   UNL     1     -11.090  16.567  67.760  1.00  0.00    -0.289 OA 
ENDROOT
BRANCH   2   3
HETATM    3  P   UNL     1     -10.944  14.989  68.452  1.00  0.00    -0.291 P  
HETATM    4  S   UNL     1     -11.679  15.630  70.219  1.00  0.00    -0.381 S  
BRANCH   3   5
HETATM    5  N   UNL     1     -12.251  14.534  67.450  1.00  0.00    -0.597 NA 
HETATM    6  H   UNL     1     -13.137  14.303  67.899  1.00  0.00     0.000 HD 
BRANCH   5   7
HETATM    7  C   UNL     1     -12.181  14.457  65.988  1.00  0.00    -0.336 C  
HETATM    8  C   UNL     1     -10.837  14.993  65.486  1.00  0.00    -0.360 C  
HETATM    9  C   UNL     1     -12.383  13.035  65.455  1.00  0.00    -0.538 C  
ENDBRANCH   5   7
ENDBRANCH   3   5
BRANCH   3  10
HETATM   10  O   UNL     1     -10.796  13.410  69.144  1.00  0.00    -0.211 OA 
BRANCH  10  11
HETATM   11  C   UNL     1     -10.371  12.334  68.399  1.00  0.00    -0.224 A  
HETATM   12  C   UNL     1      -9.286  12.392  67.525  1.00  0.00    -0.183 A  
HETATM   13  C   UNL     1      -8.998  11.331  66.662  1.00  0.00    -0.180 A  
HETATM   14  C   UNL     1      -9.743  10.161  66.735  1.00  0.00    -0.187 A  
HETATM   15  C   UNL     1     -10.773  10.046  67.659  1.00  0.00    -0.340 A  
HETATM   16 CL   UNL     1      -9.376   8.854  65.681  1.00  0.00    -0.285 Cl 
HETATM   17  C   UNL     1     -11.096  11.137  68.481  1.00  0.00    -0.244 A  
HETATM   18 CL   UNL     1     -12.388  10.946  69.609  1.00  0.00    -0.355 Cl 
ENDBRANCH  10  11
ENDBRANCH   3  10
ENDBRANCH   2   3
TORSDOF 5
ENDMDL
MODEL       71
REMARK 921   NORMALIZED FREE ENERGY PREDICTED BY IDOCK:   -4.06 KCAL/MOL
REMARK 922        TOTAL FREE ENERGY PREDICTED BY IDOCK:   -5.66 KCAL/MOL
REMARK 923 INTER-LIGAND FREE ENERGY PREDICTED BY IDOCK:   -5.26 KCAL/MOL
REMARK 924 INTRA-LIGAND FREE ENERGY PREDICTED BY IDOCK:   -0.40 KCAL/MOL
REMARK 927      BINDING AFFINITY PREDICTED BY RF-SCORE:    0.00 PKD
ROOT
HETATM    1  C   UNL     1      -8.180   9.172  69.945  1.00  0.00    -0.136 C  
HETATM    2  O   UNL     1      -9.506   9.606  69.698  1.00  0.00    -0.182 OA 
ENDROOT
BRANCH   2   3
HETATM    3  P   UNL     1     -10.073   9.816  68.078  1.00  0.00    -0.193 P  
HETATM    4  S   UNL     1      -8.290   9.251  67.318  1.00  0.00    -0.125 S  
BRANCH   3   5
HETATM    5  N   UNL     1     -11.023   8.419  68.333  1.00  0.00    -0.428 NA 
HETATM    6  H   UNL     1     -12.009   8.549  68.559  1.00  0.00     0.000 HD 
BRANCH   5   7
HETATM    7  C   UNL     1     -10.513   7.047  68.249  1.00  0.00    -0.202 C  
HETATM    8  C   UNL     1     -11.035   6.208  69.417  1.00  0.00    -0.454 C  
HETATM    9  C   UNL     1     -10.878   6.354  66.932  1.00  0.00    -0.428 C  
ENDBRANCH   5   7
ENDBRANCH   3   5
BRANCH   3  10
HETATM   10  O   UNL     1     -10.640  10.027  66.457  1.00  0.00    -0.180 OA 
BRANCH  10  11
HETATM   11  C   UNL     1     -10.973  11.269  65.968  1.00  0.00    -0.174 A  
HETATM   12  C   UNL     1     -11.638  12.234  66.723  1.00  0.00    -0.434 A  
HETATM   13  C   UNL     1     -12.109  13.411  66.133  1.00  0.00    -0.481 A  
HETATM   14  C   UNL     1     -11.832  13.672  64.797  1.00  0.00    -0.387 A  
HETATM   15  C   UNL     1     -11.095  12.766  64.047  1.00  0.00    -0.458 A  
HETATM   16 CL   UNL     1     -12.401  15.128  64.081  1.00  0.00    -0.322 Cl 
HETATM   17  C   UNL     1     -10.678  11.558  64.628  1.00  0.00    -0.319 A  
HETATM   18 CL   UNL     1      -9.768  10.463  63.652  1.00  0.00    -0.358 Cl 
ENDBRANCH  10  11
ENDBRANCH   3  10
ENDBRANCH   2   3
TORSDOF 5
ENDMDL
MODEL       72
REMARK 921   NORMALIZED FREE ENERGY PREDICTED BY IDOCK:   -4.04 KCAL/MOL
REMARK 922        TOTAL FREE ENERGY PREDICTED BY IDOCK:   -5.65 KCAL/MOL
REMARK 923 INTER-LIGAND FREE ENERGY PREDICTED BY IDOCK:   -5.09 KCAL/MOL
REMARK 924 INTRA-LIGAND FREE ENERGY PREDICTED BY IDOCK:   -0.55 KCAL/MOL
REMARK 927      BINDING AFFINITY PREDICTED BY RF-SCORE:    0.00 PKD
ROOT
HETATM    1  C   UNL     1     -11.426   6.403  70.054  1.00  0.00    -0.428 C  
HETATM    2  O   UNL     1     -11.603   7.472  70.965  1.00  0.00    -0.274 OA 
ENDROOT
BRANCH   2   3
HETATM    3  P   UNL     1     -11.282   9.100  70.479  1.00  0.00    -0.240 P  
HETATM    4  S   UNL     1     -12.812   9.800  71.594  1.00  0.00    -0.454 S  
BRANCH   3   5
HETATM    5  N   UNL     1      -9.887   9.015  71.461  1.00  0.00    -0.315 NA 
HETATM    6  H   UNL     1     -10.018   8.949  72.470  1.00  0.00     0.000 HD 
BRANCH   5   7
HETATM    7  C   UNL     1      -8.514   9.031  70.946  1.00  0.00    -0.208 C  
HETATM    8  C   UNL     1      -7.557   8.381  71.948  1.00  0.00    -0.146 C  
HETATM    9  C   UNL     1      -8.375   8.326  69.593  1.00  0.00    -0.123 C  
ENDBRANCH   5   7
ENDBRANCH   3   5
BRANCH   3  10
HETATM   10  O   UNL     1     -10.960  10.729  69.991  1.00  0.00    -0.271 OA 
BRANCH  10  11
HETATM   11  C   UNL     1     -11.108  11.131  68.683  1.00  0.00    -0.239 A  
HETATM   12  C   UNL     1     -10.753  10.335  67.595  1.00  0.00    -0.339 A  
HETATM   13  C   UNL     1     -10.758  10.849  66.294  1.00  0.00    -0.241 A  
HETATM   14  C   UNL     1     -11.211  12.142  66.065  1.00  0.00    -0.336 A  
HETATM   15  C   UNL     1     -11.654  12.924  67.124  1.00  0.00    -0.421 A  
HETATM   16 CL   UNL     1     -11.228  12.764  64.463  1.00  0.00    -0.349 Cl 
HETATM   17  C   UNL     1     -11.590  12.424  68.434  1.00  0.00    -0.324 A  
HETATM   18 CL   UNL     1     -12.147  13.437  69.715  1.00  0.00    -0.386 Cl 
ENDBRANCH  10  11
ENDBRANCH   3  10
ENDBRANCH   2   3
TORSDOF 5
ENDMDL
MODEL       73
REMARK 921   NORMALIZED FREE ENERGY PREDICTED BY IDOCK:   -4.01 KCAL/MOL
REMARK 922        TOTAL FREE ENERGY PREDICTED BY IDOCK:   -5.61 KCAL/MOL
REMARK 923 INTER-LIGAND FREE ENERGY PREDICTED BY IDOCK:   -5.04 KCAL/MOL
REMARK 924 INTRA-LIGAND FREE ENERGY PREDICTED BY IDOCK:   -0.56 KCAL/MOL
REMARK 927      BINDING AFFINITY PREDICTED BY RF-SCORE:    0.00 PKD
ROOT
HETATM    1  C   UNL     1     -10.446  12.315  63.967  1.00  0.00    -0.399 C  
HETATM    2  O   UNL     1     -10.901  11.334  64.881  1.00  0.00    -0.291 OA 
ENDROOT
BRANCH   2   3
HETATM    3  P   UNL     1     -10.691  11.557  66.583  1.00  0.00    -0.280 P  
HETATM    4  S   UNL     1     -10.385   9.582  66.866  1.00  0.00    -0.216 S  
BRANCH   3   5
HETATM    5  N   UNL     1      -9.196  12.292  66.204  1.00  0.00    -0.381 NA 
HETATM    6  H   UNL     1      -9.114  12.769  65.307  1.00  0.00     0.000 HD 
BRANCH   5   7
HETATM    7  C   UNL     1      -8.025  12.280  67.085  1.00  0.00    -0.161 C  
HETATM    8  C   UNL     1      -6.918  11.403  66.495  1.00  0.00    -0.062 C  
HETATM    9  C   UNL     1      -7.464  13.680  67.352  1.00  0.00    -0.139 C  
ENDBRANCH   5   7
ENDBRANCH   3   5
BRANCH   3  10
HETATM   10  O   UNL     1     -10.482  11.782  68.286  1.00  0.00    -0.192 OA 
BRANCH  10  11
HETATM   11  C   UNL     1     -11.264  12.663  68.997  1.00  0.00    -0.269 A  
HETATM   12  C   UNL     1     -11.390  14.011  68.664  1.00  0.00    -0.307 A  
HETATM   13  C   UNL     1     -12.053  14.904  69.513  1.00  0.00    -0.315 A  
HETATM   14  C   UNL     1     -12.677  14.430  70.660  1.00  0.00    -0.357 A  
HETATM   15  C   UNL     1     -12.641  13.077  70.966  1.00  0.00    -0.386 A  
HETATM   16 CL   UNL     1     -13.503  15.529  71.692  1.00  0.00    -0.569 Cl 
HETATM   17  C   UNL     1     -11.922  12.195  70.143  1.00  0.00    -0.314 A  
HETATM   18 CL   UNL     1     -11.903  10.523  70.570  1.00  0.00    -0.407 Cl 
ENDBRANCH  10  11
ENDBRANCH   3  10
ENDBRANCH   2   3
TORSDOF 5
ENDMDL
MODEL       74
REMARK 921   NORMALIZED FREE ENERGY PREDICTED BY IDOCK:   -4.00 KCAL/MOL
REMARK 922        TOTAL FREE ENERGY PREDICTED BY IDOCK:   -5.59 KCAL/MOL
REMARK 923 INTER-LIGAND FREE ENERGY PREDICTED BY IDOCK:   -5.05 KCAL/MOL
REMARK 924 INTRA-LIGAND FREE ENERGY PREDICTED BY IDOCK:   -0.54 KCAL/MOL
REMARK 927      BINDING AFFINITY PREDICTED BY RF-SCORE:    0.00 PKD
ROOT
HETATM    1  C   UNL     1      -7.497   8.441  69.018  1.00  0.00    -0.093 C  
HETATM    2  O   UNL     1      -8.462   7.460  69.354  1.00  0.00    -0.131 OA 
ENDROOT
BRANCH   2   3
HETATM    3  P   UNL     1     -10.029   7.929  69.915  1.00  0.00    -0.199 P  
HETATM    4  S   UNL     1     -10.928   6.569  68.725  1.00  0.00    -0.289 S  
BRANCH   3   5
HETATM    5  N   UNL     1      -9.619   7.174  71.392  1.00  0.00    -0.162 NA 
HETATM    6  H   UNL     1      -8.630   7.097  71.628  1.00  0.00     0.000 HD 
BRANCH   5   7
HETATM    7  C   UNL     1     -10.597   6.632  72.340  1.00  0.00    -0.214 C  
HETATM    8  C   UNL     1     -10.525   5.103  72.368  1.00  0.00    -0.272 C  
HETATM    9  C   UNL     1     -10.410   7.168  73.763  1.00  0.00    -0.390 C  
ENDBRANCH   5   7
ENDBRANCH   3   5
BRANCH   3  10
HETATM   10  O   UNL     1     -11.596   8.399  70.477  1.00  0.00    -0.238 OA 
BRANCH  10  11
HETATM   11  C   UNL     1     -11.974   9.722  70.533  1.00  0.00    -0.206 A  
HETATM   12  C   UNL     1     -11.521  10.684  69.632  1.00  0.00    -0.361 A  
HETATM   13  C   UNL     1     -11.791  12.041  69.831  1.00  0.00    -0.405 A  
HETATM   14  C   UNL     1     -12.600  12.436  70.889  1.00  0.00    -0.246 A  
HETATM   15  C   UNL     1     -13.136  11.487  71.749  1.00  0.00    -0.503 A  
HETATM   16 CL   UNL     1     -12.940  14.105  71.121  1.00  0.00    -0.414 Cl 
HETATM   17  C   UNL     1     -12.811  10.132  71.581  1.00  0.00    -0.454 A  
HETATM   18 CL   UNL     1     -13.499   8.992  72.679  1.00  0.00    -0.477 Cl 
ENDBRANCH  10  11
ENDBRANCH   3  10
ENDBRANCH   2   3
TORSDOF 5
ENDMDL
MODEL       75
REMARK 921   NORMALIZED FREE ENERGY PREDICTED BY IDOCK:   -3.99 KCAL/MOL
REMARK 922        TOTAL FREE ENERGY PREDICTED BY IDOCK:   -5.58 KCAL/MOL
REMARK 923 INTER-LIGAND FREE ENERGY PREDICTED BY IDOCK:   -5.19 KCAL/MOL
REMARK 924 INTRA-LIGAND FREE ENERGY PREDICTED BY IDOCK:   -0.39 KCAL/MOL
REMARK 927      BINDING AFFINITY PREDICTED BY RF-SCORE:    0.00 PKD
ROOT
HETATM    1  C   UNL     1      -8.876   9.016  67.121  1.00  0.00    -0.119 C  
HETATM    2  O   UNL     1      -9.357  10.188  67.755  1.00  0.00    -0.140 OA 
ENDROOT
BRANCH   2   3
HETATM    3  P   UNL     1     -10.081  11.453  66.825  1.00  0.00    -0.231 P  
HETATM    4  S   UNL     1      -9.908  10.382  65.122  1.00  0.00    -0.331 S  
BRANCH   3   5
HETATM    5  N   UNL     1     -11.553  11.036  67.584  1.00  0.00    -0.562 NA 
HETATM    6  H   UNL     1     -12.138  10.332  67.135  1.00  0.00     0.000 HD 
BRANCH   5   7
HETATM    7  C   UNL     1     -12.029  11.625  68.839  1.00  0.00    -0.292 C  
HETATM    8  C   UNL     1     -11.935  10.608  69.979  1.00  0.00    -0.408 C  
HETATM    9  C   UNL     1     -11.262  12.891  69.234  1.00  0.00    -0.251 C  
ENDBRANCH   5   7
ENDBRANCH   3   5
BRANCH   3  10
HETATM   10  O   UNL     1     -10.805  12.720  65.895  1.00  0.00    -0.264 OA 
BRANCH  10  11
HETATM   11  C   UNL     1     -10.309  14.003  65.917  1.00  0.00    -0.318 A  
HETATM   12  C   UNL     1      -9.227  14.390  66.708  1.00  0.00    -0.287 A  
HETATM   13  C   UNL     1      -8.869  15.735  66.831  1.00  0.00    -0.273 A  
HETATM   14  C   UNL     1      -9.538  16.698  66.085  1.00  0.00    -0.294 A  
HETATM   15  C   UNL     1     -10.560  16.326  65.223  1.00  0.00    -0.357 A  
HETATM   16 CL   UNL     1      -9.084  18.350  66.230  1.00  0.00    -0.260 Cl 
HETATM   17  C   UNL     1     -10.956  14.982  65.149  1.00  0.00    -0.406 A  
HETATM   18 CL   UNL     1     -12.235  14.572  64.067  1.00  0.00    -0.394 Cl 
ENDBRANCH  10  11
ENDBRANCH   3  10
ENDBRANCH   2   3
TORSDOF 5
ENDMDL
MODEL       76
REMARK 921   NORMALIZED FREE ENERGY PREDICTED BY IDOCK:   -3.98 KCAL/MOL
REMARK 922        TOTAL FREE ENERGY PREDICTED BY IDOCK:   -5.57 KCAL/MOL
REMARK 923 INTER-LIGAND FREE ENERGY PREDICTED BY IDOCK:   -5.03 KCAL/MOL
REMARK 924 INTRA-LIGAND FREE ENERGY PREDICTED BY IDOCK:   -0.54 KCAL/MOL
REMARK 927      BINDING AFFINITY PREDICTED BY RF-SCORE:    0.00 PKD
ROOT
HETATM    1  C   UNL     1     -10.510   5.901  66.841  1.00  0.00    -0.286 C  
HETATM    2  O   UNL     1     -10.927   7.253  66.908  1.00  0.00    -0.343 OA 
ENDROOT
BRANCH   2   3
HETATM    3  P   UNL     1     -10.588   8.205  68.311  1.00  0.00     0.046 P  
HETATM    4  S   UNL     1      -9.533   6.703  69.151  1.00  0.00    -0.135 S  
BRANCH   3   5
HETATM    5  N   UNL     1      -9.539   9.118  67.318  1.00  0.00    -0.147 NA 
HETATM    6  H   UNL     1      -8.596   9.300  67.661  1.00  0.00     0.000 HD 
BRANCH   5   7
HETATM    7  C   UNL     1      -9.908   9.656  66.005  1.00  0.00    -0.274 C  
HETATM    8  C   UNL     1     -10.521  11.051  66.149  1.00  0.00    -0.301 C  
HETATM    9  C   UNL     1      -8.724   9.728  65.035  1.00  0.00    -0.198 C  
ENDBRANCH   5   7
ENDBRANCH   3   5
BRANCH   3  10
HETATM   10  O   UNL     1     -10.249   9.159  69.714  1.00  0.00    -0.191 OA 
BRANCH  10  11
HETATM   11  C   UNL     1     -11.166  10.057  70.212  1.00  0.00    -0.313 A  
HETATM   12  C   UNL     1     -11.342  11.337  69.690  1.00  0.00    -0.359 A  
HETATM   13  C   UNL     1     -12.158  12.272  70.334  1.00  0.00    -0.385 A  
HETATM   14  C   UNL     1     -12.879  11.898  71.461  1.00  0.00    -0.316 A  
HETATM   15  C   UNL     1     -12.788  10.602  71.948  1.00  0.00    -0.487 A  
HETATM   16 CL   UNL     1     -13.891  13.048  72.241  1.00  0.00    -0.598 Cl 
HETATM   17  C   UNL     1     -11.921   9.685  71.334  1.00  0.00    -0.399 A  
HETATM   18 CL   UNL     1     -11.841   8.087  71.981  1.00  0.00    -0.346 Cl 
ENDBRANCH  10  11
ENDBRANCH   3  10
ENDBRANCH   2   3
TORSDOF 5
ENDMDL
MODEL       77
REMARK 921   NORMALIZED FREE ENERGY PREDICTED BY IDOCK:   -3.96 KCAL/MOL
REMARK 922        TOTAL FREE ENERGY PREDICTED BY IDOCK:   -5.54 KCAL/MOL
REMARK 923 INTER-LIGAND FREE ENERGY PREDICTED BY IDOCK:   -4.89 KCAL/MOL
REMARK 924 INTRA-LIGAND FREE ENERGY PREDICTED BY IDOCK:   -0.66 KCAL/MOL
REMARK 927      BINDING AFFINITY PREDICTED BY RF-SCORE:    0.00 PKD
ROOT
HETATM    1  C   UNL     1     -10.672   8.758  69.515  1.00  0.00    -0.188 C  
HETATM    2  O   UNL     1     -10.634   9.762  68.517  1.00  0.00    -0.206 OA 
ENDROOT
BRANCH   2   3
HETATM    3  P   UNL     1     -11.433  11.275  68.766  1.00  0.00    -0.345 P  
HETATM    4  S   UNL     1     -12.305  10.605  70.458  1.00  0.00    -0.379 S  
BRANCH   3   5
HETATM    5  N   UNL     1      -9.896  11.911  69.160  1.00  0.00    -0.396 NA 
HETATM    6  H   UNL     1      -9.803  12.424  70.036  1.00  0.00     0.000 HD 
BRANCH   5   7
HETATM    7  C   UNL     1      -8.704  11.766  68.319  1.00  0.00    -0.167 C  
HETATM    8  C   UNL     1      -8.264  13.126  67.773  1.00  0.00    -0.168 C  
HETATM    9  C   UNL     1      -7.528  11.119  69.057  1.00  0.00    -0.124 C  
ENDBRANCH   5   7
ENDBRANCH   3   5
BRANCH   3  10
HETATM   10  O   UNL     1     -12.232  12.790  69.014  1.00  0.00    -0.196 OA 
BRANCH  10  11
HETATM   11  C   UNL     1     -11.866  13.919  68.318  1.00  0.00    -0.376 A  
HETATM   12  C   UNL     1     -11.678  13.937  66.937  1.00  0.00    -0.425 A  
HETATM   13  C   UNL     1     -11.139  15.058  66.298  1.00  0.00    -0.334 A  
HETATM   14  C   UNL     1     -10.871  16.208  67.031  1.00  0.00    -0.194 A  
HETATM   15  C   UNL     1     -11.134  16.243  68.393  1.00  0.00    -0.362 A  
HETATM   16 CL   UNL     1     -10.222  17.588  66.237  1.00  0.00    -0.355 Cl 
HETATM   17  C   UNL     1     -11.617  15.095  69.040  1.00  0.00    -0.330 A  
HETATM   18 CL   UNL     1     -11.922  15.189  70.736  1.00  0.00    -0.341 Cl 
ENDBRANCH  10  11
ENDBRANCH   3  10
ENDBRANCH   2   3
TORSDOF 5
ENDMDL
MODEL       78
REMARK 921   NORMALIZED FREE ENERGY PREDICTED BY IDOCK:   -3.96 KCAL/MOL
REMARK 922        TOTAL FREE ENERGY PREDICTED BY IDOCK:   -5.54 KCAL/MOL
REMARK 923 INTER-LIGAND FREE ENERGY PREDICTED BY IDOCK:   -5.49 KCAL/MOL
REMARK 924 INTRA-LIGAND FREE ENERGY PREDICTED BY IDOCK:   -0.04 KCAL/MOL
REMARK 927      BINDING AFFINITY PREDICTED BY RF-SCORE:    0.00 PKD
ROOT
HETATM    1  C   UNL     1     -11.972  15.895  72.912  1.00  0.00    -0.504 C  
HETATM    2  O   UNL     1     -11.166  15.375  71.870  1.00  0.00    -0.408 OA 
ENDROOT
BRANCH   2   3
HETATM    3  P   UNL     1     -11.870  14.431  70.604  1.00  0.00    -0.228 P  
HETATM    4  S   UNL     1     -13.709  14.601  71.420  1.00  0.00    -0.394 S  
BRANCH   3   5
HETATM    5  N   UNL     1     -11.600  15.775  69.585  1.00  0.00    -0.342 NA 
HETATM    6  H   UNL     1     -12.377  16.101  69.011  1.00  0.00     0.000 HD 
BRANCH   5   7
HETATM    7  C   UNL     1     -10.324  16.490  69.483  1.00  0.00    -0.266 C  
HETATM    8  C   UNL     1      -9.201  15.528  69.085  1.00  0.00    -0.246 C  
HETATM    9  C   UNL     1     -10.367  17.650  68.483  1.00  0.00    -0.370 C  
ENDBRANCH   5   7
ENDBRANCH   3   5
BRANCH   3  10
HETATM   10  O   UNL     1     -12.574  13.486  69.337  1.00  0.00    -0.085 OA 
BRANCH  10  11
HETATM   11  C   UNL     1     -11.966  13.362  68.110  1.00  0.00    -0.321 A  
HETATM   12  C   UNL     1     -12.015  14.352  67.129  1.00  0.00    -0.419 A  
HETATM   13  C   UNL     1     -11.533  14.112  65.838  1.00  0.00    -0.338 A  
HETATM   14  C   UNL     1     -10.910  12.905  65.548  1.00  0.00    -0.274 A  
HETATM   15  C   UNL     1     -10.769  11.938  66.534  1.00  0.00    -0.293 A  
HETATM   16 CL   UNL     1     -10.306  12.621  63.964  1.00  0.00    -0.428 Cl 
HETATM   17  C   UNL     1     -11.309  12.159  67.810  1.00  0.00    -0.307 A  
HETATM   18 CL   UNL     1     -11.113  10.924  68.998  1.00  0.00    -0.270 Cl 
ENDBRANCH  10  11
ENDBRANCH   3  10
ENDBRANCH   2   3
TORSDOF 5
ENDMDL
MODEL       79
REMARK 921   NORMALIZED FREE ENERGY PREDICTED BY IDOCK:   -3.95 KCAL/MOL
REMARK 922        TOTAL FREE ENERGY PREDICTED BY IDOCK:   -5.52 KCAL/MOL
REMARK 923 INTER-LIGAND FREE ENERGY PREDICTED BY IDOCK:   -5.05 KCAL/MOL
REMARK 924 INTRA-LIGAND FREE ENERGY PREDICTED BY IDOCK:   -0.47 KCAL/MOL
REMARK 927      BINDING AFFINITY PREDICTED BY RF-SCORE:    0.00 PKD
ROOT
HETATM    1  C   UNL     1     -11.466  11.746  68.578  1.00  0.00    -0.296 C  
HETATM    2  O   UNL     1     -10.590  10.958  69.365  1.00  0.00    -0.220 OA 
ENDROOT
BRANCH   2   3
HETATM    3  P   UNL     1     -10.899   9.273  69.600  1.00  0.00    -0.126 P  
HETATM    4  S   UNL     1      -9.582   9.182  71.126  1.00  0.00    -0.247 S  
BRANCH   3   5
HETATM    5  N   UNL     1     -12.421   9.738  70.220  1.00  0.00    -0.493 NA 
HETATM    6  H   UNL     1     -13.187   9.867  69.559  1.00  0.00     0.000 HD 
BRANCH   5   7
HETATM    7  C   UNL     1     -12.698   9.964  71.642  1.00  0.00    -0.429 C  
HETATM    8  C   UNL     1     -13.182  11.398  71.874  1.00  0.00    -0.485 C  
HETATM    9  C   UNL     1     -13.733   8.989  72.212  1.00  0.00    -0.550 C  
ENDBRANCH   5   7
ENDBRANCH   3   5
BRANCH   3  10
HETATM   10  O   UNL     1     -11.209   7.587  69.834  1.00  0.00    -0.216 OA 
BRANCH  10  11
HETATM   11  C   UNL     1     -10.716   6.638  68.968  1.00  0.00    -0.259 A  
HETATM   12  C   UNL     1     -10.868   6.714  67.584  1.00  0.00    -0.393 A  
HETATM   13  C   UNL     1     -10.505   5.645  66.759  1.00  0.00    -0.353 A  
HETATM   14  C   UNL     1      -9.898   4.523  67.311  1.00  0.00    -0.175 A  
HETATM   15  C   UNL     1      -9.655   4.462  68.676  1.00  0.00    -0.216 A  
HETATM   16 CL   UNL     1      -9.441   3.218  66.290  1.00  0.00    -0.140 Cl 
HETATM   17  C   UNL     1     -10.076   5.512  69.507  1.00  0.00    -0.234 A  
HETATM   18 CL   UNL     1      -9.756   5.385  71.198  1.00  0.00    -0.217 Cl 
ENDBRANCH  10  11
ENDBRANCH   3  10
ENDBRANCH   2   3
TORSDOF 5
ENDMDL
MODEL       80
REMARK 921   NORMALIZED FREE ENERGY PREDICTED BY IDOCK:   -3.94 KCAL/MOL
REMARK 922        TOTAL FREE ENERGY PREDICTED BY IDOCK:   -5.51 KCAL/MOL
REMARK 923 INTER-LIGAND FREE ENERGY PREDICTED BY IDOCK:   -5.45 KCAL/MOL
REMARK 924 INTRA-LIGAND FREE ENERGY PREDICTED BY IDOCK:   -0.06 KCAL/MOL
REMARK 927      BINDING AFFINITY PREDICTED BY RF-SCORE:    0.00 PKD
ROOT
HETATM    1  C   UNL     1     -10.509  18.483  66.081  1.00  0.00    -0.413 C  
HETATM    2  O   UNL     1     -10.707  17.099  65.857  1.00  0.00    -0.270 OA 
ENDROOT
BRANCH   2   3
HETATM    3  P   UNL     1     -10.158  15.937  67.014  1.00  0.00    -0.281 P  
HETATM    4  S   UNL     1     -10.612  17.164  68.551  1.00  0.00    -0.339 S  
BRANCH   3   5
HETATM    5  N   UNL     1     -11.548  15.027  66.615  1.00  0.00    -0.263 NA 
HETATM    6  H   UNL     1     -12.279  14.940  67.320  1.00  0.00     0.000 HD 
BRANCH   5   7
HETATM    7  C   UNL     1     -11.756  14.363  65.324  1.00  0.00    -0.364 C  
HETATM    8  C   UNL     1     -10.415  13.958  64.706  1.00  0.00    -0.451 C  
HETATM    9  C   UNL     1     -12.653  13.125  65.426  1.00  0.00    -0.512 C  
ENDBRANCH   5   7
ENDBRANCH   3   5
BRANCH   3  10
HETATM   10  O   UNL     1      -9.608  14.774  68.171  1.00  0.00    -0.200 OA 
BRANCH  10  11
HETATM   11  C   UNL     1     -10.447  13.804  68.672  1.00  0.00    -0.239 A  
HETATM   12  C   UNL     1     -11.498  14.081  69.546  1.00  0.00    -0.331 A  
HETATM   13  C   UNL     1     -12.212  13.050  70.163  1.00  0.00    -0.342 A  
HETATM   14  C   UNL     1     -11.937  11.728  69.834  1.00  0.00    -0.332 A  
HETATM   15  C   UNL     1     -10.955  11.431  68.899  1.00  0.00    -0.276 A  
HETATM   16 CL   UNL     1     -12.828  10.464  70.586  1.00  0.00    -0.422 Cl 
HETATM   17  C   UNL     1     -10.200  12.467  68.329  1.00  0.00    -0.234 A  
HETATM   18 CL   UNL     1      -8.987  12.045  67.176  1.00  0.00    -0.179 Cl 
ENDBRANCH  10  11
ENDBRANCH   3  10
ENDBRANCH   2   3
TORSDOF 5
ENDMDL
MODEL       81
REMARK 921   NORMALIZED FREE ENERGY PREDICTED BY IDOCK:   -3.94 KCAL/MOL
REMARK 922        TOTAL FREE ENERGY PREDICTED BY IDOCK:   -5.51 KCAL/MOL
REMARK 923 INTER-LIGAND FREE ENERGY PREDICTED BY IDOCK:   -5.16 KCAL/MOL
REMARK 924 INTRA-LIGAND FREE ENERGY PREDICTED BY IDOCK:   -0.35 KCAL/MOL
REMARK 927      BINDING AFFINITY PREDICTED BY RF-SCORE:    0.00 PKD
ROOT
HETATM    1  C   UNL     1      -9.657  11.936  66.310  1.00  0.00    -0.229 C  
HETATM    2  O   UNL     1      -9.570  10.776  67.118  1.00  0.00    -0.159 OA 
ENDROOT
BRANCH   2   3
HETATM    3  P   UNL     1     -10.546  10.620  68.536  1.00  0.00    -0.238 P  
HETATM    4  S   UNL     1     -11.764  12.113  67.935  1.00  0.00    -0.290 S  
BRANCH   3   5
HETATM    5  N   UNL     1     -11.112   9.153  67.868  1.00  0.00    -0.489 NA 
HETATM    6  H   UNL     1     -12.120   9.015  67.806  1.00  0.00     0.000 HD 
BRANCH   5   7
HETATM    7  C   UNL     1     -10.241   8.081  67.378  1.00  0.00    -0.261 C  
HETATM    8  C   UNL     1      -9.103   7.818  68.368  1.00  0.00    -0.131 C  
HETATM    9  C   UNL     1     -10.992   6.770  67.122  1.00  0.00    -0.458 C  
ENDBRANCH   5   7
ENDBRANCH   3   5
BRANCH   3  10
HETATM   10  O   UNL     1     -11.522  10.464  69.957  1.00  0.00    -0.264 OA 
BRANCH  10  11
HETATM   11  C   UNL     1     -11.196   9.581  70.960  1.00  0.00    -0.362 A  
HETATM   12  C   UNL     1      -9.882   9.298  71.331  1.00  0.00    -0.296 A  
HETATM   13  C   UNL     1      -9.594   8.270  72.233  1.00  0.00    -0.355 A  
HETATM   14  C   UNL     1     -10.632   7.576  72.843  1.00  0.00    -0.337 A  
HETATM   15  C   UNL     1     -11.951   7.900  72.557  1.00  0.00    -0.349 A  
HETATM   16 CL   UNL     1     -10.271   6.322  73.962  1.00  0.00    -0.295 Cl 
HETATM   17  C   UNL     1     -12.234   8.892  71.605  1.00  0.00    -0.343 A  
HETATM   18 CL   UNL     1     -13.889   9.254  71.280  1.00  0.00    -0.301 Cl 
ENDBRANCH  10  11
ENDBRANCH   3  10
ENDBRANCH   2   3
TORSDOF 5
ENDMDL
MODEL       82
REMARK 921   NORMALIZED FREE ENERGY PREDICTED BY IDOCK:   -3.92 KCAL/MOL
REMARK 922        TOTAL FREE ENERGY PREDICTED BY IDOCK:   -5.49 KCAL/MOL
REMARK 923 INTER-LIGAND FREE ENERGY PREDICTED BY IDOCK:   -4.79 KCAL/MOL
REMARK 924 INTRA-LIGAND FREE ENERGY PREDICTED BY IDOCK:   -0.70 KCAL/MOL
REMARK 927      BINDING AFFINITY PREDICTED BY RF-SCORE:    0.00 PKD
ROOT
HETATM    1  C   UNL     1     -10.395   7.626  68.199  1.00  0.00    -0.204 C  
HETATM    2  O   UNL     1     -10.864   8.684  67.382  1.00  0.00    -0.211 OA 
ENDROOT
BRANCH   2   3
HETATM    3  P   UNL     1     -10.626  10.329  67.856  1.00  0.00    -0.277 P  
HETATM    4  S   UNL     1      -9.593   9.770  69.498  1.00  0.00    -0.223 S  
BRANCH   3   5
HETATM    5  N   UNL     1      -9.539  10.448  66.543  1.00  0.00    -0.174 NA 
HETATM    6  H   UNL     1      -8.619  10.849  66.721  1.00  0.00     0.000 HD 
BRANCH   5   7
HETATM    7  C   UNL     1      -9.845  10.011  65.177  1.00  0.00    -0.318 C  
HETATM    8  C   UNL     1     -10.436  11.165  64.364  1.00  0.00    -0.418 C  
HETATM    9  C   UNL     1      -8.623   9.454  64.440  1.00  0.00    -0.214 C  
ENDBRANCH   5   7
ENDBRANCH   3   5
BRANCH   3  10
HETATM   10  O   UNL     1     -10.388  11.976  68.330  1.00  0.00    -0.192 OA 
BRANCH  10  11
HETATM   11  C   UNL     1     -10.693  13.019  67.486  1.00  0.00    -0.238 A  
HETATM   12  C   UNL     1     -11.987  13.290  67.043  1.00  0.00    -0.419 A  
HETATM   13  C   UNL     1     -12.225  14.248  66.053  1.00  0.00    -0.422 A  
HETATM   14  C   UNL     1     -11.171  15.011  65.564  1.00  0.00    -0.344 A  
HETATM   15  C   UNL     1      -9.886  14.821  66.055  1.00  0.00    -0.350 A  
HETATM   16 CL   UNL     1     -11.471  16.197  64.357  1.00  0.00    -0.364 Cl 
HETATM   17  C   UNL     1      -9.644  13.816  67.004  1.00  0.00    -0.251 A  
HETATM   18 CL   UNL     1      -8.029  13.617  67.578  1.00  0.00    -0.176 Cl 
ENDBRANCH  10  11
ENDBRANCH   3  10
ENDBRANCH   2   3
TORSDOF 5
ENDMDL
MODEL       83
REMARK 921   NORMALIZED FREE ENERGY PREDICTED BY IDOCK:   -3.89 KCAL/MOL
REMARK 922        TOTAL FREE ENERGY PREDICTED BY IDOCK:   -5.45 KCAL/MOL
REMARK 923 INTER-LIGAND FREE ENERGY PREDICTED BY IDOCK:   -5.21 KCAL/MOL
REMARK 924 INTRA-LIGAND FREE ENERGY PREDICTED BY IDOCK:   -0.24 KCAL/MOL
REMARK 927      BINDING AFFINITY PREDICTED BY RF-SCORE:    0.00 PKD
ROOT
HETATM    1  C   UNL     1      -7.279  13.997  68.113  1.00  0.00    -0.129 C  
HETATM    2  O   UNL     1      -8.117  12.986  67.583  1.00  0.00    -0.146 OA 
ENDROOT
BRANCH   2   3
HETATM    3  P   UNL     1      -9.796  12.936  67.991  1.00  0.00    -0.227 P  
HETATM    4  S   UNL     1     -10.225  14.390  66.658  1.00  0.00    -0.283 S  
BRANCH   3   5
HETATM    5  N   UNL     1      -9.847  11.429  67.189  1.00  0.00    -0.189 NA 
HETATM    6  H   UNL     1     -10.143  11.418  66.213  1.00  0.00     0.000 HD 
BRANCH   5   7
HETATM    7  C   UNL     1      -9.492  10.150  67.813  1.00  0.00    -0.144 C  
HETATM    8  C   UNL     1      -9.304  10.324  69.322  1.00  0.00    -0.221 C  
HETATM    9  C   UNL     1     -10.532   9.054  67.561  1.00  0.00    -0.338 C  
ENDBRANCH   5   7
ENDBRANCH   3   5
BRANCH   3  10
HETATM   10  O   UNL     1     -11.477  12.886  68.401  1.00  0.00    -0.267 OA 
BRANCH  10  11
HETATM   11  C   UNL     1     -11.979  13.598  69.466  1.00  0.00    -0.341 A  
HETATM   12  C   UNL     1     -12.064  14.989  69.483  1.00  0.00    -0.311 A  
HETATM   13  C   UNL     1     -12.417  15.676  70.649  1.00  0.00    -0.463 A  
HETATM   14  C   UNL     1     -12.780  14.963  71.785  1.00  0.00    -0.331 A  
HETATM   15  C   UNL     1     -12.789  13.575  71.765  1.00  0.00    -0.399 A  
HETATM   16 CL   UNL     1     -13.227  15.812  73.212  1.00  0.00    -0.661 Cl 
HETATM   17  C   UNL     1     -12.375  12.892  70.612  1.00  0.00    -0.302 A  
HETATM   18 CL   UNL     1     -12.399  11.167  70.640  1.00  0.00    -0.458 Cl 
ENDBRANCH  10  11
ENDBRANCH   3  10
ENDBRANCH   2   3
TORSDOF 5
ENDMDL
MODEL       84
REMARK 921   NORMALIZED FREE ENERGY PREDICTED BY IDOCK:   -3.89 KCAL/MOL
REMARK 922        TOTAL FREE ENERGY PREDICTED BY IDOCK:   -5.44 KCAL/MOL
REMARK 923 INTER-LIGAND FREE ENERGY PREDICTED BY IDOCK:   -5.02 KCAL/MOL
REMARK 924 INTRA-LIGAND FREE ENERGY PREDICTED BY IDOCK:   -0.42 KCAL/MOL
REMARK 927      BINDING AFFINITY PREDICTED BY RF-SCORE:    0.00 PKD
ROOT
HETATM    1  C   UNL     1      -6.194  18.451  65.883  1.00  0.00    -0.229 C  
HETATM    2  O   UNL     1      -7.468  17.861  65.697  1.00  0.00    -0.544 OA 
ENDROOT
BRANCH   2   3
HETATM    3  P   UNL     1      -8.175  16.893  66.944  1.00  0.00    -0.263 P  
HETATM    4  S   UNL     1      -6.977  17.714  68.345  1.00  0.00    -0.231 S  
BRANCH   3   5
HETATM    5  N   UNL     1      -9.568  17.869  66.777  1.00  0.00    -0.293 NA 
HETATM    6  H   UNL     1     -10.422  17.426  66.441  1.00  0.00     0.000 HD 
BRANCH   5   7
HETATM    7  C   UNL     1      -9.612  19.301  67.088  1.00  0.00    -0.325 C  
HETATM    8  C   UNL     1     -10.351  20.066  65.987  1.00  0.00    -0.556 C  
HETATM    9  C   UNL     1     -10.276  19.599  68.436  1.00  0.00    -0.553 C  
ENDBRANCH   5   7
ENDBRANCH   3   5
BRANCH   3  10
HETATM   10  O   UNL     1      -8.883  15.923  68.190  1.00  0.00    -0.173 OA 
BRANCH  10  11
HETATM   11  C   UNL     1      -9.446  14.698  67.916  1.00  0.00    -0.210 A  
HETATM   12  C   UNL     1     -10.769  14.540  67.504  1.00  0.00    -0.276 A  
HETATM   13  C   UNL     1     -11.346  13.270  67.406  1.00  0.00    -0.337 A  
HETATM   14  C   UNL     1     -10.570  12.140  67.630  1.00  0.00    -0.210 A  
HETATM   15  C   UNL     1      -9.226  12.270  67.954  1.00  0.00    -0.190 A  
HETATM   16 CL   UNL     1     -11.281  10.581  67.494  1.00  0.00    -0.363 Cl 
HETATM   17  C   UNL     1      -8.667  13.548  68.111  1.00  0.00    -0.174 A  
HETATM   18 CL   UNL     1      -6.994  13.655  68.520  1.00  0.00    -0.096 Cl 
ENDBRANCH  10  11
ENDBRANCH   3  10
ENDBRANCH   2   3
TORSDOF 5
ENDMDL
MODEL       85
REMARK 921   NORMALIZED FREE ENERGY PREDICTED BY IDOCK:   -3.88 KCAL/MOL
REMARK 922        TOTAL FREE ENERGY PREDICTED BY IDOCK:   -5.44 KCAL/MOL
REMARK 923 INTER-LIGAND FREE ENERGY PREDICTED BY IDOCK:   -4.90 KCAL/MOL
REMARK 924 INTRA-LIGAND FREE ENERGY PREDICTED BY IDOCK:   -0.54 KCAL/MOL
REMARK 927      BINDING AFFINITY PREDICTED BY RF-SCORE:    0.00 PKD
ROOT
HETATM    1  C   UNL     1     -11.153   6.165  69.262  1.00  0.00    -0.393 C  
HETATM    2  O   UNL     1     -11.262   6.467  67.883  1.00  0.00    -0.319 OA 
ENDROOT
BRANCH   2   3
HETATM    3  P   UNL     1     -10.309   7.730  67.184  1.00  0.00    -0.321 P  
HETATM    4  S   UNL     1      -9.023   7.703  68.740  1.00  0.00    -0.132 S  
BRANCH   3   5
HETATM    5  N   UNL     1      -9.797   6.574  66.034  1.00  0.00    -0.392 NA 
HETATM    6  H   UNL     1     -10.441   6.335  65.281  1.00  0.00     0.000 HD 
BRANCH   5   7
HETATM    7  C   UNL     1      -8.492   5.906  66.062  1.00  0.00    -0.137 C  
HETATM    8  C   UNL     1      -8.633   4.477  66.593  1.00  0.00    -0.111 C  
HETATM    9  C   UNL     1      -7.813   5.865  64.689  1.00  0.00    -0.114 C  
ENDBRANCH   5   7
ENDBRANCH   3   5
BRANCH   3  10
HETATM   10  O   UNL     1      -9.357   8.993  66.484  1.00  0.00    -0.163 OA 
BRANCH  10  11
HETATM   11  C   UNL     1      -9.940  10.084  65.880  1.00  0.00    -0.269 A  
HETATM   12  C   UNL     1     -10.729  11.006  66.567  1.00  0.00    -0.298 A  
HETATM   13  C   UNL     1     -11.441  11.996  65.883  1.00  0.00    -0.392 A  
HETATM   14  C   UNL     1     -11.293  12.127  64.508  1.00  0.00    -0.334 A  
HETATM   15  C   UNL     1     -10.443  11.276  63.814  1.00  0.00    -0.459 A  
HETATM   16 CL   UNL     1     -12.159  13.354  63.674  1.00  0.00    -0.550 Cl 
HETATM   17  C   UNL     1      -9.778  10.245  64.497  1.00  0.00    -0.329 A  
HETATM   18 CL   UNL     1      -8.739   9.211  63.587  1.00  0.00    -0.187 Cl 
ENDBRANCH  10  11
ENDBRANCH   3  10
ENDBRANCH   2   3
TORSDOF 5
ENDMDL
MODEL       86
REMARK 921   NORMALIZED FREE ENERGY PREDICTED BY IDOCK:   -3.86 KCAL/MOL
REMARK 922        TOTAL FREE ENERGY PREDICTED BY IDOCK:   -5.41 KCAL/MOL
REMARK 923 INTER-LIGAND FREE ENERGY PREDICTED BY IDOCK:   -4.90 KCAL/MOL
REMARK 924 INTRA-LIGAND FREE ENERGY PREDICTED BY IDOCK:   -0.50 KCAL/MOL
REMARK 927      BINDING AFFINITY PREDICTED BY RF-SCORE:    0.00 PKD
ROOT
HETATM    1  C   UNL     1     -10.825   5.469  73.323  1.00  0.00    -0.293 C  
HETATM    2  O   UNL     1     -11.140   6.691  72.681  1.00  0.00    -0.243 OA 
ENDROOT
BRANCH   2   3
HETATM    3  P   UNL     1     -10.483   7.058  71.124  1.00  0.00    -0.213 P  
HETATM    4  S   UNL     1     -10.371   5.101  70.643  1.00  0.00    -0.200 S  
BRANCH   3   5
HETATM    5  N   UNL     1     -12.038   7.633  70.710  1.00  0.00    -0.484 NA 
HETATM    6  H   UNL     1     -12.308   7.610  69.727  1.00  0.00     0.000 HD 
BRANCH   5   7
HETATM    7  C   UNL     1     -13.007   8.156  71.678  1.00  0.00    -0.331 C  
HETATM    8  C   UNL     1     -13.186   9.666  71.496  1.00  0.00    -0.484 C  
HETATM    9  C   UNL     1     -14.376   7.475  71.579  1.00  0.00    -0.603 C  
ENDBRANCH   5   7
ENDBRANCH   3   5
BRANCH   3  10
HETATM   10  O   UNL     1      -9.824   7.426  69.567  1.00  0.00    -0.163 OA 
BRANCH  10  11
HETATM   11  C   UNL     1      -9.972   8.671  68.999  1.00  0.00    -0.192 A  
HETATM   12  C   UNL     1      -9.694   9.857  69.677  1.00  0.00    -0.252 A  
HETATM   13  C   UNL     1     -10.023  11.098  69.123  1.00  0.00    -0.104 A  
HETATM   14  C   UNL     1     -10.550  11.162  67.838  1.00  0.00    -0.198 A  
HETATM   15  C   UNL     1     -10.753   9.998  67.109  1.00  0.00    -0.279 A  
HETATM   16 CL   UNL     1     -10.939  12.691  67.156  1.00  0.00    -0.281 Cl 
HETATM   17  C   UNL     1     -10.478   8.752  67.693  1.00  0.00    -0.244 A  
HETATM   18 CL   UNL     1     -10.752   7.336  66.747  1.00  0.00    -0.337 Cl 
ENDBRANCH  10  11
ENDBRANCH   3  10
ENDBRANCH   2   3
TORSDOF 5
ENDMDL
MODEL       87
REMARK 921   NORMALIZED FREE ENERGY PREDICTED BY IDOCK:   -3.86 KCAL/MOL
REMARK 922        TOTAL FREE ENERGY PREDICTED BY IDOCK:   -5.40 KCAL/MOL
REMARK 923 INTER-LIGAND FREE ENERGY PREDICTED BY IDOCK:   -5.03 KCAL/MOL
REMARK 924 INTRA-LIGAND FREE ENERGY PREDICTED BY IDOCK:   -0.38 KCAL/MOL
REMARK 927      BINDING AFFINITY PREDICTED BY RF-SCORE:    0.00 PKD
ROOT
HETATM    1  C   UNL     1     -11.155  10.557  68.032  1.00  0.00    -0.300 C  
HETATM    2  O   UNL     1     -11.147  11.424  66.912  1.00  0.00    -0.285 OA 
ENDROOT
BRANCH   2   3
HETATM    3  P   UNL     1     -10.120  12.816  66.890  1.00  0.00    -0.239 P  
HETATM    4  S   UNL     1      -8.925  12.031  68.315  1.00  0.00    -0.165 S  
BRANCH   3   5
HETATM    5  N   UNL     1      -9.578  12.271  65.364  1.00  0.00    -0.429 NA 
HETATM    6  H   UNL     1      -8.830  12.794  64.909  1.00  0.00     0.000 HD 
BRANCH   5   7
HETATM    7  C   UNL     1     -10.119  11.099  64.667  1.00  0.00    -0.302 C  
HETATM    8  C   UNL     1     -10.600  11.483  63.266  1.00  0.00    -0.405 C  
HETATM    9  C   UNL     1      -9.108   9.954  64.552  1.00  0.00    -0.296 C  
ENDBRANCH   5   7
ENDBRANCH   3   5
BRANCH   3  10
HETATM   10  O   UNL     1      -9.094  14.208  66.867  1.00  0.00    -0.232 OA 
BRANCH  10  11
HETATM   11  C   UNL     1      -9.600  15.472  66.669  1.00  0.00    -0.253 A  
HETATM   12  C   UNL     1     -10.344  15.829  65.545  1.00  0.00    -0.430 A  
HETATM   13  C   UNL     1     -10.689  17.162  65.303  1.00  0.00    -0.067 A  
HETATM   14  C   UNL     1     -10.368  18.139  66.238  1.00  0.00    -0.397 A  
HETATM   15  C   UNL     1      -9.706  17.793  67.408  1.00  0.00    -0.284 A  
HETATM   16 CL   UNL     1     -10.807  19.774  65.942  1.00  0.00    -0.484 Cl 
HETATM   17  C   UNL     1      -9.309  16.464  67.617  1.00  0.00    -0.212 A  
HETATM   18 CL   UNL     1      -8.483  16.087  69.085  1.00  0.00    -0.246 Cl 
ENDBRANCH  10  11
ENDBRANCH   3  10
ENDBRANCH   2   3
TORSDOF 5
ENDMDL
MODEL       88
REMARK 921   NORMALIZED FREE ENERGY PREDICTED BY IDOCK:   -3.82 KCAL/MOL
REMARK 922        TOTAL FREE ENERGY PREDICTED BY IDOCK:   -5.35 KCAL/MOL
REMARK 923 INTER-LIGAND FREE ENERGY PREDICTED BY IDOCK:   -5.06 KCAL/MOL
REMARK 924 INTRA-LIGAND FREE ENERGY PREDICTED BY IDOCK:   -0.29 KCAL/MOL
REMARK 927      BINDING AFFINITY PREDICTED BY RF-SCORE:    0.00 PKD
ROOT
HETATM    1  C   UNL     1     -12.726  12.179  63.252  1.00  0.00    -0.285 C  
HETATM    2  O   UNL     1     -11.872  12.890  64.130  1.00  0.00    -0.359 OA 
ENDROOT
BRANCH   2   3
HETATM    3  P   UNL     1     -10.619  12.065  64.991  1.00  0.00    -0.314 P  
HETATM    4  S   UNL     1     -10.054  11.065  63.331  1.00  0.00    -0.352 S  
BRANCH   3   5
HETATM    5  N   UNL     1      -9.796  13.562  65.031  1.00  0.00    -0.590 NA 
HETATM    6  H   UNL     1      -9.215  13.808  64.229  1.00  0.00     0.000 HD 
BRANCH   5   7
HETATM    7  C   UNL     1      -9.870  14.515  66.143  1.00  0.00    -0.318 C  
HETATM    8  C   UNL     1      -8.602  14.444  66.997  1.00  0.00    -0.226 C  
HETATM    9  C   UNL     1     -10.081  15.959  65.679  1.00  0.00    -0.388 C  
ENDBRANCH   5   7
ENDBRANCH   3   5
BRANCH   3  10
HETATM   10  O   UNL     1      -9.365  11.241  65.853  1.00  0.00    -0.208 OA 
BRANCH  10  11
HETATM   11  C   UNL     1      -9.619  10.091  66.565  1.00  0.00    -0.187 A  
HETATM   12  C   UNL     1      -9.485   8.813  66.025  1.00  0.00    -0.302 A  
HETATM   13  C   UNL     1      -9.918   7.684  66.727  1.00  0.00    -0.317 A  
HETATM   14  C   UNL     1     -10.406   7.823  68.021  1.00  0.00    -0.209 A  
HETATM   15  C   UNL     1     -10.465   9.076  68.614  1.00  0.00    -0.229 A  
HETATM   16 CL   UNL     1     -10.924   6.430  68.886  1.00  0.00    -0.380 Cl 
HETATM   17  C   UNL     1     -10.086  10.212  67.882  1.00  0.00    -0.176 A  
HETATM   18 CL   UNL     1     -10.184  11.748  68.662  1.00  0.00    -0.221 Cl 
ENDBRANCH  10  11
ENDBRANCH   3  10
ENDBRANCH   2   3
TORSDOF 5
ENDMDL
MODEL       89
REMARK 921   NORMALIZED FREE ENERGY PREDICTED BY IDOCK:   -3.82 KCAL/MOL
REMARK 922        TOTAL FREE ENERGY PREDICTED BY IDOCK:   -5.35 KCAL/MOL
REMARK 923 INTER-LIGAND FREE ENERGY PREDICTED BY IDOCK:   -4.99 KCAL/MOL
REMARK 924 INTRA-LIGAND FREE ENERGY PREDICTED BY IDOCK:   -0.36 KCAL/MOL
REMARK 927      BINDING AFFINITY PREDICTED BY RF-SCORE:    0.00 PKD
ROOT
HETATM    1  C   UNL     1     -10.842  14.998  68.714  1.00  0.00    -0.249 C  
HETATM    2  O   UNL     1     -10.425  14.231  67.599  1.00  0.00    -0.246 OA 
ENDROOT
BRANCH   2   3
HETATM    3  P   UNL     1     -10.939  12.590  67.424  1.00  0.00    -0.288 P  
HETATM    4  S   UNL     1     -11.859  12.622  69.220  1.00  0.00    -0.274 S  
BRANCH   3   5
HETATM    5  N   UNL     1     -12.032  13.160  66.241  1.00  0.00    -0.406 NA 
HETATM    6  H   UNL     1     -12.995  13.334  66.527  1.00  0.00     0.000 HD 
BRANCH   5   7
HETATM    7  C   UNL     1     -11.674  13.415  64.842  1.00  0.00    -0.351 C  
HETATM    8  C   UNL     1     -12.342  12.389  63.922  1.00  0.00    -0.602 C  
HETATM    9  C   UNL     1     -12.052  14.825  64.376  1.00  0.00    -0.457 C  
ENDBRANCH   5   7
ENDBRANCH   3   5
BRANCH   3  10
HETATM   10  O   UNL     1     -11.452  10.947  67.247  1.00  0.00    -0.458 OA 
BRANCH  10  11
HETATM   11  C   UNL     1     -10.607   9.896  67.523  1.00  0.00    -0.275 A  
HETATM   12  C   UNL     1     -10.505   9.308  68.783  1.00  0.00    -0.233 A  
HETATM   13  C   UNL     1      -9.513   8.363  69.060  1.00  0.00    -0.151 A  
HETATM   14  C   UNL     1      -8.671   7.929  68.043  1.00  0.00    -0.125 A  
HETATM   15  C   UNL     1      -8.812   8.435  66.758  1.00  0.00    -0.156 A  
HETATM   16 CL   UNL     1      -7.462   6.757  68.385  1.00  0.00    -0.093 Cl 
HETATM   17  C   UNL     1      -9.769   9.428  66.500  1.00  0.00    -0.236 A  
HETATM   18 CL   UNL     1      -9.901  10.027  64.887  1.00  0.00    -0.388 Cl 
ENDBRANCH  10  11
ENDBRANCH   3  10
ENDBRANCH   2   3
TORSDOF 5
ENDMDL
MODEL       90
REMARK 921   NORMALIZED FREE ENERGY PREDICTED BY IDOCK:   -3.81 KCAL/MOL
REMARK 922        TOTAL FREE ENERGY PREDICTED BY IDOCK:   -5.34 KCAL/MOL
REMARK 923 INTER-LIGAND FREE ENERGY PREDICTED BY IDOCK:   -4.93 KCAL/MOL
REMARK 924 INTRA-LIGAND FREE ENERGY PREDICTED BY IDOCK:   -0.41 KCAL/MOL
REMARK 927      BINDING AFFINITY PREDICTED BY RF-SCORE:    0.00 PKD
ROOT
HETATM    1  C   UNL     1     -11.417  12.004  63.821  1.00  0.00    -0.461 C  
HETATM    2  O   UNL     1     -10.755  12.144  65.065  1.00  0.00    -0.277 OA 
ENDROOT
BRANCH   2   3
HETATM    3  P   UNL     1     -10.958  13.579  66.009  1.00  0.00    -0.279 P  
HETATM    4  S   UNL     1     -12.226  14.366  64.650  1.00  0.00    -0.430 S  
BRANCH   3   5
HETATM    5  N   UNL     1     -11.855  12.617  67.099  1.00  0.00    -0.432 NA 
HETATM    6  H   UNL     1     -12.864  12.559  66.964  1.00  0.00     0.000 HD 
BRANCH   5   7
HETATM    7  C   UNL     1     -11.268  11.871  68.217  1.00  0.00    -0.261 C  
HETATM    8  C   UNL     1     -12.179  11.939  69.445  1.00  0.00    -0.185 C  
HETATM    9  C   UNL     1     -10.995  10.403  67.877  1.00  0.00    -0.354 C  
ENDBRANCH   5   7
ENDBRANCH   3   5
BRANCH   3  10
HETATM   10  O   UNL     1     -11.160  15.014  66.954  1.00  0.00    -0.324 OA 
BRANCH  10  11
HETATM   11  C   UNL     1     -10.079  15.712  67.442  1.00  0.00    -0.251 A  
HETATM   12  C   UNL     1      -9.238  15.219  68.439  1.00  0.00    -0.194 A  
HETATM   13  C   UNL     1      -8.261  16.030  69.024  1.00  0.00    -0.235 A  
HETATM   14  C   UNL     1      -8.058  17.319  68.546  1.00  0.00    -0.262 A  
HETATM   15  C   UNL     1      -8.823  17.801  67.493  1.00  0.00    -0.243 A  
HETATM   16 CL   UNL     1      -6.846  18.307  69.260  1.00  0.00    -0.243 Cl 
HETATM   17  C   UNL     1      -9.843  17.004  66.950  1.00  0.00    -0.271 A  
HETATM   18 CL   UNL     1     -10.769  17.652  65.647  1.00  0.00    -0.226 Cl 
ENDBRANCH  10  11
ENDBRANCH   3  10
ENDBRANCH   2   3
TORSDOF 5
ENDMDL
MODEL       91
REMARK 921   NORMALIZED FREE ENERGY PREDICTED BY IDOCK:   -3.80 KCAL/MOL
REMARK 922        TOTAL FREE ENERGY PREDICTED BY IDOCK:   -5.33 KCAL/MOL
REMARK 923 INTER-LIGAND FREE ENERGY PREDICTED BY IDOCK:   -4.83 KCAL/MOL
REMARK 924 INTRA-LIGAND FREE ENERGY PREDICTED BY IDOCK:   -0.50 KCAL/MOL
REMARK 927      BINDING AFFINITY PREDICTED BY RF-SCORE:    0.00 PKD
ROOT
HETATM    1  C   UNL     1     -12.403  12.744  64.806  1.00  0.00    -0.478 C  
HETATM    2  O   UNL     1     -12.234  12.264  66.128  1.00  0.00    -0.647 OA 
ENDROOT
BRANCH   2   3
HETATM    3  P   UNL     1     -11.081  13.000  67.186  1.00  0.00    -0.297 P  
HETATM    4  S   UNL     1     -11.836  12.026  68.784  1.00  0.00    -0.263 S  
BRANCH   3   5
HETATM    5  N   UNL     1      -9.909  12.003  66.444  1.00  0.00    -0.215 NA 
HETATM    6  H   UNL     1      -9.359  12.400  65.683  1.00  0.00     0.000 HD 
BRANCH   5   7
HETATM    7  C   UNL     1      -9.643  10.614  66.832  1.00  0.00    -0.171 C  
HETATM    8  C   UNL     1      -9.765   9.687  65.620  1.00  0.00    -0.363 C  
HETATM    9  C   UNL     1      -8.263  10.426  67.470  1.00  0.00    -0.114 C  
ENDBRANCH   5   7
ENDBRANCH   3   5
BRANCH   3  10
HETATM   10  O   UNL     1      -9.928  13.738  68.244  1.00  0.00    -0.231 OA 
BRANCH  10  11
HETATM   11  C   UNL     1      -9.732  15.100  68.258  1.00  0.00    -0.219 A  
HETATM   12  C   UNL     1     -10.730  16.011  68.600  1.00  0.00    -0.281 A  
HETATM   13  C   UNL     1     -10.538  17.386  68.432  1.00  0.00    -0.355 A  
HETATM   14  C   UNL     1      -9.305  17.864  68.007  1.00  0.00    -0.274 A  
HETATM   15  C   UNL     1      -8.267  16.980  67.746  1.00  0.00    -0.196 A  
HETATM   16 CL   UNL     1      -9.070  19.556  67.816  1.00  0.00    -0.370 Cl 
HETATM   17  C   UNL     1      -8.484  15.598  67.857  1.00  0.00    -0.150 A  
HETATM   18 CL   UNL     1      -7.163  14.541  67.516  1.00  0.00    -0.207 Cl 
ENDBRANCH  10  11
ENDBRANCH   3  10
ENDBRANCH   2   3
TORSDOF 5
ENDMDL
MODEL       92
REMARK 921   NORMALIZED FREE ENERGY PREDICTED BY IDOCK:   -3.78 KCAL/MOL
REMARK 922        TOTAL FREE ENERGY PREDICTED BY IDOCK:   -5.31 KCAL/MOL
REMARK 923 INTER-LIGAND FREE ENERGY PREDICTED BY IDOCK:   -4.81 KCAL/MOL
REMARK 924 INTRA-LIGAND FREE ENERGY PREDICTED BY IDOCK:   -0.50 KCAL/MOL
REMARK 927      BINDING AFFINITY PREDICTED BY RF-SCORE:    0.00 PKD
ROOT
HETATM    1  C   UNL     1     -11.712  14.520  69.351  1.00  0.00    -0.318 C  
HETATM    2  O   UNL     1     -10.773  13.829  68.545  1.00  0.00    -0.248 OA 
ENDROOT
BRANCH   2   3
HETATM    3  P   UNL     1     -11.098  12.219  68.006  1.00  0.00    -0.283 P  
HETATM    4  S   UNL     1     -12.035  11.764  69.735  1.00  0.00    -0.305 S  
BRANCH   3   5
HETATM    5  N   UNL     1     -12.236  12.911  66.936  1.00  0.00    -0.410 NA 
HETATM    6  H   UNL     1     -13.195  13.016  67.264  1.00  0.00     0.000 HD 
BRANCH   5   7
HETATM    7  C   UNL     1     -11.921  13.362  65.577  1.00  0.00    -0.398 C  
HETATM    8  C   UNL     1     -10.415  13.592  65.423  1.00  0.00    -0.322 C  
HETATM    9  C   UNL     1     -12.390  12.382  64.497  1.00  0.00    -0.519 C  
ENDBRANCH   5   7
ENDBRANCH   3   5
BRANCH   3  10
HETATM   10  O   UNL     1     -11.422  10.607  67.466  1.00  0.00    -0.460 OA 
BRANCH  10  11
HETATM   11  C   UNL     1     -10.435   9.818  66.922  1.00  0.00    -0.211 A  
HETATM   12  C   UNL     1      -9.917  10.016  65.642  1.00  0.00    -0.355 A  
HETATM   13  C   UNL     1      -9.044   9.089  65.067  1.00  0.00    -0.171 A  
HETATM   14  C   UNL     1      -8.607   7.999  65.811  1.00  0.00    -0.153 A  
HETATM   15  C   UNL     1      -9.039   7.829  67.119  1.00  0.00    -0.154 A  
HETATM   16 CL   UNL     1      -7.521   6.870  65.103  1.00  0.00    -0.088 Cl 
HETATM   17  C   UNL     1      -9.964   8.729  67.670  1.00  0.00    -0.193 A  
HETATM   18 CL   UNL     1     -10.474   8.471  69.298  1.00  0.00    -0.227 Cl 
ENDBRANCH  10  11
ENDBRANCH   3  10
ENDBRANCH   2   3
TORSDOF 5
ENDMDL
MODEL       93
REMARK 921   NORMALIZED FREE ENERGY PREDICTED BY IDOCK:   -3.78 KCAL/MOL
REMARK 922        TOTAL FREE ENERGY PREDICTED BY IDOCK:   -5.31 KCAL/MOL
REMARK 923 INTER-LIGAND FREE ENERGY PREDICTED BY IDOCK:   -5.83 KCAL/MOL
REMARK 924 INTRA-LIGAND FREE ENERGY PREDICTED BY IDOCK:    0.52 KCAL/MOL
REMARK 927      BINDING AFFINITY PREDICTED BY RF-SCORE:    0.00 PKD
ROOT
HETATM    1  C   UNL     1      -7.201  17.444  66.272  1.00  0.00    -0.311 C  
HETATM    2  O   UNL     1      -8.229  16.555  65.874  1.00  0.00    -0.345 OA 
ENDROOT
BRANCH   2   3
HETATM    3  P   UNL     1      -9.635  16.345  66.859  1.00  0.00    -0.269 P  
HETATM    4  S   UNL     1      -8.629  15.160  68.147  1.00  0.00    -0.162 S  
BRANCH   3   5
HETATM    5  N   UNL     1      -9.424  17.972  67.337  1.00  0.00    -0.260 NA 
HETATM    6  H   UNL     1      -8.498  18.260  67.651  1.00  0.00     0.000 HD 
BRANCH   5   7
HETATM    7  C   UNL     1     -10.489  18.979  67.324  1.00  0.00    -0.451 C  
HETATM    8  C   UNL     1     -10.249  20.029  68.412  1.00  0.00    -0.510 C  
HETATM    9  C   UNL     1     -10.628  19.685  65.971  1.00  0.00    -0.584 C  
ENDBRANCH   5   7
ENDBRANCH   3   5
BRANCH   3  10
HETATM   10  O   UNL     1     -11.042  16.134  67.843  1.00  0.00    -0.340 OA 
BRANCH  10  11
HETATM   11  C   UNL     1     -11.431  14.891  68.287  1.00  0.00    -0.324 A  
HETATM   12  C   UNL     1     -11.569  14.571  69.637  1.00  0.00    -0.346 A  
HETATM   13  C   UNL     1     -11.796  13.253  70.045  1.00  0.00    -0.365 A  
HETATM   14  C   UNL     1     -11.979  12.257  69.093  1.00  0.00    -0.249 A  
HETATM   15  C   UNL     1     -11.933  12.569  67.741  1.00  0.00    -0.286 A  
HETATM   16 CL   UNL     1     -12.271  10.641  69.600  1.00  0.00    -0.325 Cl 
HETATM   17  C   UNL     1     -11.645  13.882  67.337  1.00  0.00    -0.368 A  
HETATM   18 CL   UNL     1     -11.595  14.216  65.645  1.00  0.00    -0.331 Cl 
ENDBRANCH  10  11
ENDBRANCH   3  10
ENDBRANCH   2   3
TORSDOF 5
ENDMDL
MODEL       94
REMARK 921   NORMALIZED FREE ENERGY PREDICTED BY IDOCK:   -3.74 KCAL/MOL
REMARK 922        TOTAL FREE ENERGY PREDICTED BY IDOCK:   -5.25 KCAL/MOL
REMARK 923 INTER-LIGAND FREE ENERGY PREDICTED BY IDOCK:   -5.67 KCAL/MOL
REMARK 924 INTRA-LIGAND FREE ENERGY PREDICTED BY IDOCK:    0.43 KCAL/MOL
REMARK 927      BINDING AFFINITY PREDICTED BY RF-SCORE:    0.00 PKD
ROOT
HETATM    1  C   UNL     1     -10.131  14.486  68.071  1.00  0.00    -0.226 C  
HETATM    2  O   UNL     1     -11.412  13.932  68.313  1.00  0.00    -0.274 OA 
ENDROOT
BRANCH   2   3
HETATM    3  P   UNL     1     -11.588  12.242  68.635  1.00  0.00    -0.343 P  
HETATM    4  S   UNL     1      -9.703  11.866  68.018  1.00  0.00    -0.196 S  
BRANCH   3   5
HETATM    5  N   UNL     1     -11.547  12.652  70.293  1.00  0.00    -0.538 NA 
HETATM    6  H   UNL     1     -10.795  12.264  70.861  1.00  0.00     0.000 HD 
BRANCH   5   7
HETATM    7  C   UNL     1     -12.524  13.527  70.950  1.00  0.00    -0.369 C  
HETATM    8  C   UNL     1     -13.229  12.785  72.087  1.00  0.00    -0.546 C  
HETATM    9  C   UNL     1     -11.897  14.811  71.503  1.00  0.00    -0.394 C  
ENDBRANCH   5   7
ENDBRANCH   3   5
BRANCH   3  10
HETATM   10  O   UNL     1     -11.766  10.551  68.956  1.00  0.00    -0.246 OA 
BRANCH  10  11
HETATM   11  C   UNL     1     -11.206   9.968  70.070  1.00  0.00    -0.288 A  
HETATM   12  C   UNL     1      -9.834   9.773  70.222  1.00  0.00    -0.296 A  
HETATM   13  C   UNL     1      -9.326   9.022  71.286  1.00  0.00    -0.324 A  
HETATM   14  C   UNL     1     -10.188   8.539  72.263  1.00  0.00    -0.325 A  
HETATM   15  C   UNL     1     -11.550   8.796  72.180  1.00  0.00    -0.434 A  
HETATM   16 CL   UNL     1      -9.557   7.629  73.577  1.00  0.00    -0.334 Cl 
HETATM   17  C   UNL     1     -12.061   9.498  71.077  1.00  0.00    -0.318 A  
HETATM   18 CL   UNL     1     -13.761   9.787  71.019  1.00  0.00    -0.221 Cl 
ENDBRANCH  10  11
ENDBRANCH   3  10
ENDBRANCH   2   3
TORSDOF 5
ENDMDL
MODEL       95
REMARK 921   NORMALIZED FREE ENERGY PREDICTED BY IDOCK:   -3.72 KCAL/MOL
REMARK 922        TOTAL FREE ENERGY PREDICTED BY IDOCK:   -5.23 KCAL/MOL
REMARK 923 INTER-LIGAND FREE ENERGY PREDICTED BY IDOCK:   -5.05 KCAL/MOL
REMARK 924 INTRA-LIGAND FREE ENERGY PREDICTED BY IDOCK:   -0.18 KCAL/MOL
REMARK 927      BINDING AFFINITY PREDICTED BY RF-SCORE:    0.00 PKD
ROOT
HETATM    1  C   UNL     1     -11.592  15.370  64.682  1.00  0.00    -0.311 C  
HETATM    2  O   UNL     1     -10.931  14.790  65.793  1.00  0.00    -0.315 OA 
ENDROOT
BRANCH   2   3
HETATM    3  P   UNL     1     -11.578  13.380  66.558  1.00  0.00    -0.398 P  
HETATM    4  S   UNL     1     -12.312  12.693  64.808  1.00  0.00    -0.471 S  
BRANCH   3   5
HETATM    5  N   UNL     1      -9.963  12.846  66.718  1.00  0.00    -0.237 NA 
HETATM    6  H   UNL     1      -9.691  11.995  66.226  1.00  0.00     0.000 HD 
BRANCH   5   7
HETATM    7  C   UNL     1      -8.943  13.532  67.517  1.00  0.00    -0.210 C  
HETATM    8  C   UNL     1      -9.598  14.373  68.616  1.00  0.00    -0.208 C  
HETATM    9  C   UNL     1      -7.938  12.569  68.158  1.00  0.00    -0.157 C  
ENDBRANCH   5   7
ENDBRANCH   3   5
BRANCH   3  10
HETATM   10  O   UNL     1     -12.224  11.970  67.324  1.00  0.00    -0.496 OA 
BRANCH  10  11
HETATM   11  C   UNL     1     -11.410  11.051  67.945  1.00  0.00    -0.311 A  
HETATM   12  C   UNL     1     -10.712  10.060  67.256  1.00  0.00    -0.309 A  
HETATM   13  C   UNL     1     -10.038   9.045  67.940  1.00  0.00    -0.246 A  
HETATM   14  C   UNL     1      -9.980   9.069  69.328  1.00  0.00    -0.188 A  
HETATM   15  C   UNL     1     -10.593  10.095  70.034  1.00  0.00    -0.338 A  
HETATM   16 CL   UNL     1      -9.138   7.826  70.164  1.00  0.00    -0.152 Cl 
HETATM   17  C   UNL     1     -11.320  11.078  69.345  1.00  0.00    -0.284 A  
HETATM   18 CL   UNL     1     -12.067  12.330  70.268  1.00  0.00    -0.414 Cl 
ENDBRANCH  10  11
ENDBRANCH   3  10
ENDBRANCH   2   3
TORSDOF 5
ENDMDL
MODEL       96
REMARK 921   NORMALIZED FREE ENERGY PREDICTED BY IDOCK:   -3.72 KCAL/MOL
REMARK 922        TOTAL FREE ENERGY PREDICTED BY IDOCK:   -5.23 KCAL/MOL
REMARK 923 INTER-LIGAND FREE ENERGY PREDICTED BY IDOCK:   -4.78 KCAL/MOL
REMARK 924 INTRA-LIGAND FREE ENERGY PREDICTED BY IDOCK:   -0.44 KCAL/MOL
REMARK 927      BINDING AFFINITY PREDICTED BY RF-SCORE:    0.00 PKD
ROOT
HETATM    1  C   UNL     1      -8.513   8.632  65.006  1.00  0.00    -0.173 C  
HETATM    2  O   UNL     1      -8.860   9.474  66.090  1.00  0.00    -0.142 OA 
ENDROOT
BRANCH   2   3
HETATM    3  P   UNL     1      -9.388  11.096  65.805  1.00  0.00    -0.218 P  
HETATM    4  S   UNL     1      -9.801  10.687  63.872  1.00  0.00    -0.328 S  
BRANCH   3   5
HETATM    5  N   UNL     1     -10.760  10.712  66.748  1.00  0.00    -0.238 NA 
HETATM    6  H   UNL     1     -11.667  10.686  66.282  1.00  0.00     0.000 HD 
BRANCH   5   7
HETATM    7  C   UNL     1     -10.717  10.417  68.184  1.00  0.00    -0.236 C  
HETATM    8  C   UNL     1      -9.340  10.755  68.760  1.00  0.00    -0.186 C  
HETATM    9  C   UNL     1     -11.790  11.166  68.980  1.00  0.00    -0.418 C  
ENDBRANCH   5   7
ENDBRANCH   3   5
BRANCH   3  10
HETATM   10  O   UNL     1      -9.916  12.720  65.521  1.00  0.00    -0.271 OA 
BRANCH  10  11
HETATM   11  C   UNL     1     -10.153  13.591  66.559  1.00  0.00    -0.282 A  
HETATM   12  C   UNL     1      -9.183  13.947  67.494  1.00  0.00    -0.205 A  
HETATM   13  C   UNL     1      -9.514  14.695  68.628  1.00  0.00    -0.211 A  
HETATM   14  C   UNL     1     -10.809  15.174  68.783  1.00  0.00    -0.247 A  
HETATM   15  C   UNL     1     -11.772  14.908  67.819  1.00  0.00    -0.340 A  
HETATM   16 CL   UNL     1     -11.208  16.106  70.171  1.00  0.00    -0.366 Cl 
HETATM   17  C   UNL     1     -11.449  14.105  66.715  1.00  0.00    -0.369 A  
HETATM   18 CL   UNL     1     -12.683  13.799  65.548  1.00  0.00    -0.555 Cl 
ENDBRANCH  10  11
ENDBRANCH   3  10
ENDBRANCH   2   3
TORSDOF 5
ENDMDL
MODEL       97
REMARK 921   NORMALIZED FREE ENERGY PREDICTED BY IDOCK:   -3.70 KCAL/MOL
REMARK 922        TOTAL FREE ENERGY PREDICTED BY IDOCK:   -5.21 KCAL/MOL
REMARK 923 INTER-LIGAND FREE ENERGY PREDICTED BY IDOCK:   -4.76 KCAL/MOL
REMARK 924 INTRA-LIGAND FREE ENERGY PREDICTED BY IDOCK:   -0.45 KCAL/MOL
REMARK 927      BINDING AFFINITY PREDICTED BY RF-SCORE:    0.00 PKD
ROOT
HETATM    1  C   UNL     1     -12.567  15.334  70.661  1.00  0.00    -0.417 C  
HETATM    2  O   UNL     1     -12.630  14.630  69.434  1.00  0.00    -0.139 OA 
ENDROOT
BRANCH   2   3
HETATM    3  P   UNL     1     -11.573  13.294  69.135  1.00  0.00    -0.333 P  
HETATM    4  S   UNL     1     -11.816  13.471  67.139  1.00  0.00    -0.382 S  
BRANCH   3   5
HETATM    5  N   UNL     1     -10.297  14.321  69.621  1.00  0.00    -0.426 NA 
HETATM    6  H   UNL     1     -10.134  14.438  70.621  1.00  0.00     0.000 HD 
BRANCH   5   7
HETATM    7  C   UNL     1      -9.422  15.046  68.694  1.00  0.00    -0.212 C  
HETATM    8  C   UNL     1      -9.366  16.531  69.058  1.00  0.00    -0.239 C  
HETATM    9  C   UNL     1      -7.997  14.486  68.656  1.00  0.00    -0.145 C  
ENDBRANCH   5   7
ENDBRANCH   3   5
BRANCH   3  10
HETATM   10  O   UNL     1     -10.515  11.958  68.836  1.00  0.00    -0.202 OA 
BRANCH  10  11
HETATM   11  C   UNL     1     -10.809  10.692  69.290  1.00  0.00    -0.239 A  
HETATM   12  C   UNL     1     -11.382  10.442  70.536  1.00  0.00    -0.424 A  
HETATM   13  C   UNL     1     -11.502   9.137  71.024  1.00  0.00    -0.372 A  
HETATM   14  C   UNL     1     -11.132   8.064  70.223  1.00  0.00    -0.224 A  
HETATM   15  C   UNL     1     -10.642   8.285  68.943  1.00  0.00    -0.160 A  
HETATM   16 CL   UNL     1     -11.295   6.461  70.823  1.00  0.00    -0.390 Cl 
HETATM   17  C   UNL     1     -10.467   9.599  68.481  1.00  0.00    -0.212 A  
HETATM   18 CL   UNL     1      -9.849   9.820  66.885  1.00  0.00    -0.242 Cl 
ENDBRANCH  10  11
ENDBRANCH   3  10
ENDBRANCH   2   3
TORSDOF 5
ENDMDL
MODEL       98
REMARK 921   NORMALIZED FREE ENERGY PREDICTED BY IDOCK:   -3.70 KCAL/MOL
REMARK 922        TOTAL FREE ENERGY PREDICTED BY IDOCK:   -5.20 KCAL/MOL
REMARK 923 INTER-LIGAND FREE ENERGY PREDICTED BY IDOCK:   -4.78 KCAL/MOL
REMARK 924 INTRA-LIGAND FREE ENERGY PREDICTED BY IDOCK:   -0.43 KCAL/MOL
REMARK 927      BINDING AFFINITY PREDICTED BY RF-SCORE:    0.00 PKD
ROOT
HETATM    1  C   UNL     1     -12.136  13.580  69.922  1.00  0.00    -0.341 C  
HETATM    2  O   UNL     1     -12.334  14.037  68.596  1.00  0.00    -0.271 OA 
ENDROOT
BRANCH   2   3
HETATM    3  P   UNL     1     -11.264  13.545  67.330  1.00  0.00    -0.323 P  
HETATM    4  S   UNL     1     -12.598  14.078  65.913  1.00  0.00    -0.366 S  
BRANCH   3   5
HETATM    5  N   UNL     1     -10.319  14.912  67.731  1.00  0.00    -0.243 NA 
HETATM    6  H   UNL     1      -9.670  14.830  68.513  1.00  0.00     0.000 HD 
BRANCH   5   7
HETATM    7  C   UNL     1     -10.382  16.194  67.022  1.00  0.00    -0.290 C  
HETATM    8  C   UNL     1     -10.706  17.330  67.996  1.00  0.00    -0.367 C  
HETATM    9  C   UNL     1      -9.086  16.528  66.276  1.00  0.00    -0.348 C  
ENDBRANCH   5   7
ENDBRANCH   3   5
BRANCH   3  10
HETATM   10  O   UNL     1     -10.192  13.053  66.064  1.00  0.00    -0.276 OA 
BRANCH  10  11
HETATM   11  C   UNL     1      -9.812  11.739  65.914  1.00  0.00    -0.238 A  
HETATM   12  C   UNL     1      -9.352  10.952  66.969  1.00  0.00    -0.180 A  
HETATM   13  C   UNL     1      -8.814   9.682  66.740  1.00  0.00    -0.148 A  
HETATM   14  C   UNL     1      -8.820   9.152  65.455  1.00  0.00    -0.196 A  
HETATM   15  C   UNL     1      -9.354   9.882  64.402  1.00  0.00    -0.326 A  
HETATM   16 CL   UNL     1      -8.170   7.585  65.181  1.00  0.00    -0.135 Cl 
HETATM   17  C   UNL     1      -9.837  11.180  64.628  1.00  0.00    -0.280 A  
HETATM   18 CL   UNL     1     -10.486  12.048  63.285  1.00  0.00    -0.447 Cl 
ENDBRANCH  10  11
ENDBRANCH   3  10
ENDBRANCH   2   3
TORSDOF 5
ENDMDL
MODEL       99
REMARK 921   NORMALIZED FREE ENERGY PREDICTED BY IDOCK:   -3.70 KCAL/MOL
REMARK 922        TOTAL FREE ENERGY PREDICTED BY IDOCK:   -5.20 KCAL/MOL
REMARK 923 INTER-LIGAND FREE ENERGY PREDICTED BY IDOCK:   -4.63 KCAL/MOL
REMARK 924 INTRA-LIGAND FREE ENERGY PREDICTED BY IDOCK:   -0.57 KCAL/MOL
REMARK 927      BINDING AFFINITY PREDICTED BY RF-SCORE:    0.00 PKD
ROOT
HETATM    1  C   UNL     1     -10.418  17.884  68.151  1.00  0.00    -0.372 C  
HETATM    2  O   UNL     1     -10.944  16.570  68.125  1.00  0.00    -0.346 OA 
ENDROOT
BRANCH   2   3
HETATM    3  P   UNL     1      -9.889  15.202  68.188  1.00  0.00    -0.224 P  
HETATM    4  S   UNL     1      -8.282  16.381  68.507  1.00  0.00    -0.211 S  
BRANCH   3   5
HETATM    5  N   UNL     1     -10.607  14.840  69.695  1.00  0.00    -0.386 NA 
HETATM    6  H   UNL     1     -10.005  14.820  70.518  1.00  0.00     0.000 HD 
BRANCH   5   7
HETATM    7  C   UNL     1     -12.033  14.556  69.882  1.00  0.00    -0.328 C  
HETATM    8  C   UNL     1     -12.238  13.110  70.341  1.00  0.00    -0.389 C  
HETATM    9  C   UNL     1     -12.703  15.499  70.887  1.00  0.00    -0.525 C  
ENDBRANCH   5   7
ENDBRANCH   3   5
BRANCH   3  10
HETATM   10  O   UNL     1      -8.833  13.832  68.251  1.00  0.00    -0.178 OA 
BRANCH  10  11
HETATM   11  C   UNL     1      -9.257  12.579  67.872  1.00  0.00    -0.200 A  
HETATM   12  C   UNL     1     -10.400  12.359  67.104  1.00  0.00    -0.232 A  
HETATM   13  C   UNL     1     -10.887  11.066  66.890  1.00  0.00    -0.324 A  
HETATM   14  C   UNL     1     -10.175   9.973  67.369  1.00  0.00    -0.219 A  
HETATM   15  C   UNL     1      -8.986  10.163  68.060  1.00  0.00    -0.125 A  
HETATM   16 CL   UNL     1     -10.771   8.385  67.091  1.00  0.00    -0.311 Cl 
HETATM   17  C   UNL     1      -8.534  11.466  68.324  1.00  0.00    -0.154 A  
HETATM   18 CL   UNL     1      -7.054  11.648  69.192  1.00  0.00    -0.110 Cl 
ENDBRANCH  10  11
ENDBRANCH   3  10
ENDBRANCH   2   3
TORSDOF 5
ENDMDL
MODEL      100
REMARK 921   NORMALIZED FREE ENERGY PREDICTED BY IDOCK:   -3.69 KCAL/MOL
REMARK 922        TOTAL FREE ENERGY PREDICTED BY IDOCK:   -5.19 KCAL/MOL
REMARK 923 INTER-LIGAND FREE ENERGY PREDICTED BY IDOCK:   -5.35 KCAL/MOL
REMARK 924 INTRA-LIGAND FREE ENERGY PREDICTED BY IDOCK:    0.15 KCAL/MOL
REMARK 927      BINDING AFFINITY PREDICTED BY RF-SCORE:    0.00 PKD
ROOT
HETATM    1  C   UNL     1      -9.960   7.186  71.889  1.00  0.00    -0.167 C  
HETATM    2  O   UNL     1     -10.570   8.400  72.292  1.00  0.00    -0.297 OA 
ENDROOT
BRANCH   2   3
HETATM    3  P   UNL     1     -11.427   9.372  71.148  1.00  0.00    -0.410 P  
HETATM    4  S   UNL     1      -9.939   9.199  69.795  1.00  0.00    -0.205 S  
BRANCH   3   5
HETATM    5  N   UNL     1     -12.488   8.045  70.963  1.00  0.00    -0.497 NA 
HETATM    6  H   UNL     1     -12.112   7.186  70.563  1.00  0.00     0.000 HD 
BRANCH   5   7
HETATM    7  C   UNL     1     -13.904   8.063  71.342  1.00  0.00    -0.263 C  
HETATM    8  C   UNL     1     -14.402   6.643  71.623  1.00  0.00    -0.168 C  
HETATM    9  C   UNL     1     -14.184   8.942  72.565  1.00  0.00    -0.386 C  
ENDBRANCH   5   7
ENDBRANCH   3   5
BRANCH   3  10
HETATM   10  O   UNL     1     -12.286  10.345  70.004  1.00  0.00    -0.258 OA 
BRANCH  10  11
HETATM   11  C   UNL     1     -12.056  11.697  69.894  1.00  0.00    -0.301 A  
HETATM   12  C   UNL     1     -11.336  12.267  68.844  1.00  0.00    -0.337 A  
HETATM   13  C   UNL     1     -10.980  13.619  68.865  1.00  0.00    -0.281 A  
HETATM   14  C   UNL     1     -11.426  14.434  69.898  1.00  0.00    -0.260 A  
HETATM   15  C   UNL     1     -12.220  13.908  70.908  1.00  0.00    -0.436 A  
HETATM   16 CL   UNL     1     -10.997  16.098  69.911  1.00  0.00    -0.340 Cl 
HETATM   17  C   UNL     1     -12.523  12.538  70.915  1.00  0.00    -0.269 A  
HETATM   18 CL   UNL     1     -13.508  11.933  72.196  1.00  0.00    -0.472 Cl 
ENDBRANCH  10  11
ENDBRANCH   3  10
ENDBRANCH   2   3
TORSDOF 5
ENDMDL
MODEL      101
REMARK 921   NORMALIZED FREE ENERGY PREDICTED BY IDOCK:   -3.66 KCAL/MOL
REMARK 922        TOTAL FREE ENERGY PREDICTED BY IDOCK:   -5.16 KCAL/MOL
REMARK 923 INTER-LIGAND FREE ENERGY PREDICTED BY IDOCK:   -4.65 KCAL/MOL
REMARK 924 INTRA-LIGAND FREE ENERGY PREDICTED BY IDOCK:   -0.51 KCAL/MOL
REMARK 927      BINDING AFFINITY PREDICTED BY RF-SCORE:    0.00 PKD
ROOT
HETATM    1  C   UNL     1     -10.774   6.568  68.319  1.00  0.00    -0.278 C  
HETATM    2  O   UNL     1     -10.543   7.575  69.287  1.00  0.00    -0.223 OA 
ENDROOT
BRANCH   2   3
HETATM    3  P   UNL     1     -10.406   9.232  68.811  1.00  0.00    -0.197 P  
HETATM    4  S   UNL     1     -11.242   9.860  70.538  1.00  0.00    -0.352 S  
BRANCH   3   5
HETATM    5  N   UNL     1      -8.723   9.060  69.052  1.00  0.00    -0.137 NA 
HETATM    6  H   UNL     1      -8.381   8.165  69.400  1.00  0.00     0.000 HD 
BRANCH   5   7
HETATM    7  C   UNL     1      -7.740  10.116  68.789  1.00  0.00    -0.088 C  
HETATM    8  C   UNL     1      -6.863  10.351  70.021  1.00  0.00    -0.151 C  
HETATM    9  C   UNL     1      -6.841   9.810  67.587  1.00  0.00    -0.085 C  
ENDBRANCH   5   7
ENDBRANCH   3   5
BRANCH   3  10
HETATM   10  O   UNL     1     -10.268  10.890  68.335  1.00  0.00    -0.165 OA 
BRANCH  10  11
HETATM   11  C   UNL     1     -10.783  11.340  67.141  1.00  0.00    -0.253 A  
HETATM   12  C   UNL     1     -10.499  10.744  65.913  1.00  0.00    -0.270 A  
HETATM   13  C   UNL     1     -10.903  11.337  64.713  1.00  0.00    -0.314 A  
HETATM   14  C   UNL     1     -11.679  12.490  64.740  1.00  0.00    -0.358 A  
HETATM   15  C   UNL     1     -12.049  13.053  65.954  1.00  0.00    -0.503 A  
HETATM   16 CL   UNL     1     -12.184  13.208  63.263  1.00  0.00    -0.575 Cl 
HETATM   17  C   UNL     1     -11.590  12.487  67.154  1.00  0.00    -0.368 A  
HETATM   18 CL   UNL     1     -12.075  13.227  68.635  1.00  0.00    -0.332 Cl 
ENDBRANCH  10  11
ENDBRANCH   3  10
ENDBRANCH   2   3
TORSDOF 5
ENDMDL
MODEL      102
REMARK 921   NORMALIZED FREE ENERGY PREDICTED BY IDOCK:   -3.65 KCAL/MOL
REMARK 922        TOTAL FREE ENERGY PREDICTED BY IDOCK:   -5.13 KCAL/MOL
REMARK 923 INTER-LIGAND FREE ENERGY PREDICTED BY IDOCK:   -4.71 KCAL/MOL
REMARK 924 INTRA-LIGAND FREE ENERGY PREDICTED BY IDOCK:   -0.43 KCAL/MOL
REMARK 927      BINDING AFFINITY PREDICTED BY RF-SCORE:    0.00 PKD
ROOT
HETATM    1  C   UNL     1     -11.795  14.555  69.186  1.00  0.00    -0.319 C  
HETATM    2  O   UNL     1     -11.636  14.743  67.791  1.00  0.00    -0.335 OA 
ENDROOT
BRANCH   2   3
HETATM    3  P   UNL     1     -11.149  13.428  66.780  1.00  0.00    -0.307 P  
HETATM    4  S   UNL     1     -12.637  13.805  65.469  1.00  0.00    -0.477 S  
BRANCH   3   5
HETATM    5  N   UNL     1      -9.796  14.383  66.357  1.00  0.00    -0.283 NA 
HETATM    6  H   UNL     1      -9.726  14.710  65.394  1.00  0.00     0.000 HD 
BRANCH   5   7
HETATM    7  C   UNL     1      -8.731  14.761  67.291  1.00  0.00    -0.210 C  
HETATM    8  C   UNL     1      -7.851  13.553  67.620  1.00  0.00    -0.178 C  
HETATM    9  C   UNL     1      -7.846  15.894  66.759  1.00  0.00    -0.273 C  
ENDBRANCH   5   7
ENDBRANCH   3   5
BRANCH   3  10
HETATM   10  O   UNL     1     -10.660  12.112  65.768  1.00  0.00    -0.245 OA 
BRANCH  10  11
HETATM   11  C   UNL     1     -10.490  10.843  66.271  1.00  0.00    -0.245 A  
HETATM   12  C   UNL     1     -10.912  10.463  67.545  1.00  0.00    -0.358 A  
HETATM   13  C   UNL     1     -10.564   9.219  68.078  1.00  0.00    -0.262 A  
HETATM   14  C   UNL     1      -9.866   8.305  67.298  1.00  0.00    -0.197 A  
HETATM   15  C   UNL     1      -9.512   8.627  65.995  1.00  0.00    -0.278 A  
HETATM   16 CL   UNL     1      -9.453   6.771  67.954  1.00  0.00    -0.119 Cl 
HETATM   17  C   UNL     1      -9.810   9.900  65.486  1.00  0.00    -0.311 A  
HETATM   18 CL   UNL     1      -9.344  10.253  63.863  1.00  0.00    -0.310 Cl 
ENDBRANCH  10  11
ENDBRANCH   3  10
ENDBRANCH   2   3
TORSDOF 5
ENDMDL
MODEL      103
REMARK 921   NORMALIZED FREE ENERGY PREDICTED BY IDOCK:   -3.65 KCAL/MOL
REMARK 922        TOTAL FREE ENERGY PREDICTED BY IDOCK:   -5.13 KCAL/MOL
REMARK 923 INTER-LIGAND FREE ENERGY PREDICTED BY IDOCK:   -4.68 KCAL/MOL
REMARK 924 INTRA-LIGAND FREE ENERGY PREDICTED BY IDOCK:   -0.46 KCAL/MOL
REMARK 927      BINDING AFFINITY PREDICTED BY RF-SCORE:    0.00 PKD
ROOT
HETATM    1  C   UNL     1     -12.704  13.412  64.881  1.00  0.00    -0.304 C  
HETATM    2  O   UNL     1     -12.554  14.018  66.152  1.00  0.00    -0.468 OA 
ENDROOT
BRANCH   2   3
HETATM    3  P   UNL     1     -11.456  13.357  67.313  1.00  0.00    -0.383 P  
HETATM    4  S   UNL     1      -9.922  14.437  66.566  1.00  0.00    -0.293 S  
BRANCH   3   5
HETATM    5  N   UNL     1     -12.272  14.304  68.478  1.00  0.00    -0.577 NA 
HETATM    6  H   UNL     1     -13.157  14.733  68.209  1.00  0.00     0.000 HD 
BRANCH   5   7
HETATM    7  C   UNL     1     -11.781  14.538  69.840  1.00  0.00    -0.299 C  
HETATM    8  C   UNL     1     -11.384  16.005  70.022  1.00  0.00    -0.353 C  
HETATM    9  C   UNL     1     -12.804  14.160  70.916  1.00  0.00    -0.404 C  
ENDBRANCH   5   7
ENDBRANCH   3   5
BRANCH   3  10
HETATM   10  O   UNL     1     -10.357  12.696  68.475  1.00  0.00    -0.234 OA 
BRANCH  10  11
HETATM   11  C   UNL     1      -9.986  11.371  68.441  1.00  0.00    -0.204 A  
HETATM   12  C   UNL     1     -10.902  10.323  68.376  1.00  0.00    -0.288 A  
HETATM   13  C   UNL     1     -10.489   8.995  68.519  1.00  0.00    -0.232 A  
HETATM   14  C   UNL     1      -9.136   8.702  68.635  1.00  0.00    -0.138 A  
HETATM   15  C   UNL     1      -8.197   9.724  68.613  1.00  0.00    -0.106 A  
HETATM   16 CL   UNL     1      -8.632   7.067  68.796  1.00  0.00    -0.125 Cl 
HETATM   17  C   UNL     1      -8.621  11.059  68.530  1.00  0.00    -0.158 A  
HETATM   18 CL   UNL     1      -7.415  12.293  68.512  1.00  0.00    -0.111 Cl 
ENDBRANCH  10  11
ENDBRANCH   3  10
ENDBRANCH   2   3
TORSDOF 5
ENDMDL
MODEL      104
REMARK 921   NORMALIZED FREE ENERGY PREDICTED BY IDOCK:   -3.64 KCAL/MOL
REMARK 922        TOTAL FREE ENERGY PREDICTED BY IDOCK:   -5.13 KCAL/MOL
REMARK 923 INTER-LIGAND FREE ENERGY PREDICTED BY IDOCK:   -5.14 KCAL/MOL
REMARK 924 INTRA-LIGAND FREE ENERGY PREDICTED BY IDOCK:    0.01 KCAL/MOL
REMARK 927      BINDING AFFINITY PREDICTED BY RF-SCORE:    0.00 PKD
ROOT
HETATM    1  C   UNL     1     -10.626   8.663  66.908  1.00  0.00    -0.200 C  
HETATM    2  O   UNL     1     -11.022   9.980  66.571  1.00  0.00    -0.008 OA 
ENDROOT
BRANCH   2   3
HETATM    3  P   UNL     1     -10.681  11.298  67.637  1.00  0.00    -0.262 P  
HETATM    4  S   UNL     1      -9.167  10.282  68.505  1.00  0.00    -0.151 S  
BRANCH   3   5
HETATM    5  N   UNL     1     -10.072  12.120  66.269  1.00  0.00    -0.220 NA 
HETATM    6  H   UNL     1      -9.062  12.126  66.127  1.00  0.00     0.000 HD 
BRANCH   5   7
HETATM    7  C   UNL     1     -10.907  12.818  65.287  1.00  0.00    -0.291 C  
HETATM    8  C   UNL     1     -10.949  12.039  63.969  1.00  0.00    -0.442 C  
HETATM    9  C   UNL     1     -12.340  13.048  65.777  1.00  0.00    -0.477 C  
ENDBRANCH   5   7
ENDBRANCH   3   5
BRANCH   3  10
HETATM   10  O   UNL     1     -10.340  12.617  68.705  1.00  0.00    -0.228 OA 
BRANCH  10  11
HETATM   11  C   UNL     1     -11.342  13.264  69.390  1.00  0.00    -0.219 A  
HETATM   12  C   UNL     1     -11.702  14.589  69.145  1.00  0.00    -0.349 A  
HETATM   13  C   UNL     1     -12.602  15.258  69.981  1.00  0.00    -0.277 A  
HETATM   14  C   UNL     1     -13.222  14.570  71.017  1.00  0.00    -0.354 A  
HETATM   15  C   UNL     1     -12.947  13.226  71.225  1.00  0.00    -0.353 A  
HETATM   16 CL   UNL     1     -14.339  15.393  72.032  1.00  0.00    -0.645 Cl 
HETATM   17  C   UNL     1     -11.997  12.576  70.422  1.00  0.00    -0.251 A  
HETATM   18 CL   UNL     1     -11.686  10.906  70.725  1.00  0.00    -0.410 Cl 
ENDBRANCH  10  11
ENDBRANCH   3  10
ENDBRANCH   2   3
TORSDOF 5
ENDMDL
MODEL      105
REMARK 921   NORMALIZED FREE ENERGY PREDICTED BY IDOCK:   -3.64 KCAL/MOL
REMARK 922        TOTAL FREE ENERGY PREDICTED BY IDOCK:   -5.12 KCAL/MOL
REMARK 923 INTER-LIGAND FREE ENERGY PREDICTED BY IDOCK:   -4.60 KCAL/MOL
REMARK 924 INTRA-LIGAND FREE ENERGY PREDICTED BY IDOCK:   -0.53 KCAL/MOL
REMARK 927      BINDING AFFINITY PREDICTED BY RF-SCORE:    0.00 PKD
ROOT
HETATM    1  C   UNL     1      -7.282  11.425  67.104  1.00  0.00    -0.134 C  
HETATM    2  O   UNL     1      -8.358  10.555  66.799  1.00  0.00    -0.124 OA 
ENDROOT
BRANCH   2   3
HETATM    3  P   UNL     1      -9.942  10.870  67.416  1.00  0.00    -0.198 P  
HETATM    4  S   UNL     1     -10.657  11.234  65.564  1.00  0.00    -0.217 S  
BRANCH   3   5
HETATM    5  N   UNL     1     -10.050   9.193  67.722  1.00  0.00    -0.190 NA 
HETATM    6  H   UNL     1      -9.943   8.557  66.933  1.00  0.00     0.000 HD 
BRANCH   5   7
HETATM    7  C   UNL     1     -10.287   8.610  69.047  1.00  0.00    -0.213 C  
HETATM    8  C   UNL     1      -9.897   7.130  69.059  1.00  0.00    -0.156 C  
HETATM    9  C   UNL     1      -9.529   9.336  70.163  1.00  0.00    -0.258 C  
ENDBRANCH   5   7
ENDBRANCH   3   5
BRANCH   3  10
HETATM   10  O   UNL     1     -11.527  11.186  68.035  1.00  0.00    -0.328 OA 
BRANCH  10  11
HETATM   11  C   UNL     1     -11.789  12.291  68.810  1.00  0.00    -0.306 A  
HETATM   12  C   UNL     1     -11.505  13.595  68.404  1.00  0.00    -0.346 A  
HETATM   13  C   UNL     1     -11.627  14.669  69.290  1.00  0.00    -0.335 A  
HETATM   14  C   UNL     1     -12.127  14.455  70.569  1.00  0.00    -0.334 A  
HETATM   15  C   UNL     1     -12.501  13.179  70.967  1.00  0.00    -0.406 A  
HETATM   16 CL   UNL     1     -12.288  15.781  71.649  1.00  0.00    -0.476 Cl 
HETATM   17  C   UNL     1     -12.319  12.095  70.094  1.00  0.00    -0.145 A  
HETATM   18 CL   UNL     1     -12.796  10.528  70.638  1.00  0.00    -0.432 Cl 
ENDBRANCH  10  11
ENDBRANCH   3  10
ENDBRANCH   2   3
TORSDOF 5
ENDMDL
MODEL      106
REMARK 921   NORMALIZED FREE ENERGY PREDICTED BY IDOCK:   -3.64 KCAL/MOL
REMARK 922        TOTAL FREE ENERGY PREDICTED BY IDOCK:   -5.12 KCAL/MOL
REMARK 923 INTER-LIGAND FREE ENERGY PREDICTED BY IDOCK:   -4.63 KCAL/MOL
REMARK 924 INTRA-LIGAND FREE ENERGY PREDICTED BY IDOCK:   -0.49 KCAL/MOL
REMARK 927      BINDING AFFINITY PREDICTED BY RF-SCORE:    0.00 PKD
ROOT
HETATM    1  C   UNL     1      -7.015   6.740  70.329  1.00  0.00    -0.066 C  
HETATM    2  O   UNL     1      -7.787   7.873  70.686  1.00  0.00    -0.091 OA 
ENDROOT
BRANCH   2   3
HETATM    3  P   UNL     1      -9.222   8.268  69.806  1.00  0.00    -0.155 P  
HETATM    4  S   UNL     1      -9.549   6.329  69.350  1.00  0.00    -0.142 S  
BRANCH   3   5
HETATM    5  N   UNL     1      -9.941   8.601  71.320  1.00  0.00    -0.222 NA 
HETATM    6  H   UNL     1      -9.545   9.356  71.880  1.00  0.00     0.000 HD 
BRANCH   5   7
HETATM    7  C   UNL     1     -11.091   7.872  71.865  1.00  0.00    -0.267 C  
HETATM    8  C   UNL     1     -10.736   7.241  73.213  1.00  0.00    -0.428 C  
HETATM    9  C   UNL     1     -12.331   8.755  72.037  1.00  0.00    -0.444 C  
ENDBRANCH   5   7
ENDBRANCH   3   5
BRANCH   3  10
HETATM   10  O   UNL     1     -10.658   8.665  68.926  1.00  0.00    -0.209 OA 
BRANCH  10  11
HETATM   11  C   UNL     1     -10.618   9.468  67.809  1.00  0.00    -0.261 A  
HETATM   12  C   UNL     1     -10.067   9.059  66.594  1.00  0.00    -0.355 A  
HETATM   13  C   UNL     1      -9.892   9.964  65.543  1.00  0.00    -0.381 A  
HETATM   14  C   UNL     1     -10.355  11.268  65.669  1.00  0.00    -0.256 A  
HETATM   15  C   UNL     1     -10.987  11.673  66.837  1.00  0.00    -0.342 A  
HETATM   16 CL   UNL     1     -10.150  12.371  64.368  1.00  0.00    -0.312 Cl 
HETATM   17  C   UNL     1     -11.106  10.778  67.912  1.00  0.00    -0.308 A  
HETATM   18 CL   UNL     1     -11.895  11.333  69.343  1.00  0.00    -0.389 Cl 
ENDBRANCH  10  11
ENDBRANCH   3  10
ENDBRANCH   2   3
TORSDOF 5
ENDMDL
MODEL      107
REMARK 921   NORMALIZED FREE ENERGY PREDICTED BY IDOCK:   -3.59 KCAL/MOL
REMARK 922        TOTAL FREE ENERGY PREDICTED BY IDOCK:   -5.06 KCAL/MOL
REMARK 923 INTER-LIGAND FREE ENERGY PREDICTED BY IDOCK:   -4.72 KCAL/MOL
REMARK 924 INTRA-LIGAND FREE ENERGY PREDICTED BY IDOCK:   -0.34 KCAL/MOL
REMARK 927      BINDING AFFINITY PREDICTED BY RF-SCORE:    0.00 PKD
ROOT
HETATM    1  C   UNL     1     -10.579  19.128  65.854  1.00  0.00    -0.415 C  
HETATM    2  O   UNL     1     -10.502  18.153  66.877  1.00  0.00    -0.368 OA 
ENDROOT
BRANCH   2   3
HETATM    3  P   UNL     1      -9.930  16.559  66.528  1.00  0.00    -0.314 P  
HETATM    4  S   UNL     1     -11.048  16.461  64.850  1.00  0.00    -0.099 S  
BRANCH   3   5
HETATM    5  N   UNL     1      -8.432  17.285  66.143  1.00  0.00    -0.479 NA 
HETATM    6  H   UNL     1      -8.256  17.525  65.168  1.00  0.00     0.000 HD 
BRANCH   5   7
HETATM    7  C   UNL     1      -7.386  17.585  67.125  1.00  0.00    -0.188 C  
HETATM    8  C   UNL     1      -7.808  17.116  68.520  1.00  0.00    -0.257 C  
HETATM    9  C   UNL     1      -6.036  16.952  66.772  1.00  0.00    -0.216 C  
ENDBRANCH   5   7
ENDBRANCH   3   5
BRANCH   3  10
HETATM   10  O   UNL     1      -9.359  14.963  66.179  1.00  0.00    -0.292 OA 
BRANCH  10  11
HETATM   11  C   UNL     1      -9.889  13.857  66.802  1.00  0.00    -0.274 A  
HETATM   12  C   UNL     1     -11.246  13.540  66.772  1.00  0.00    -0.327 A  
HETATM   13  C   UNL     1     -11.763  12.508  67.561  1.00  0.00    -0.439 A  
HETATM   14  C   UNL     1     -10.903  11.722  68.319  1.00  0.00    -0.220 A  
HETATM   15  C   UNL     1      -9.536  11.962  68.295  1.00  0.00    -0.201 A  
HETATM   16 CL   UNL     1     -11.542  10.445  69.276  1.00  0.00    -0.271 Cl 
HETATM   17  C   UNL     1      -9.030  13.037  67.549  1.00  0.00    -0.193 A  
HETATM   18 CL   UNL     1      -7.324  13.297  67.558  1.00  0.00    -0.162 Cl 
ENDBRANCH  10  11
ENDBRANCH   3  10
ENDBRANCH   2   3
TORSDOF 5
ENDMDL
MODEL      108
REMARK 921   NORMALIZED FREE ENERGY PREDICTED BY IDOCK:   -3.59 KCAL/MOL
REMARK 922        TOTAL FREE ENERGY PREDICTED BY IDOCK:   -5.06 KCAL/MOL
REMARK 923 INTER-LIGAND FREE ENERGY PREDICTED BY IDOCK:   -4.47 KCAL/MOL
REMARK 924 INTRA-LIGAND FREE ENERGY PREDICTED BY IDOCK:   -0.58 KCAL/MOL
REMARK 927      BINDING AFFINITY PREDICTED BY RF-SCORE:    0.00 PKD
ROOT
HETATM    1  C   UNL     1     -11.003   6.432  66.993  1.00  0.00    -0.389 C  
HETATM    2  O   UNL     1     -10.430   7.409  67.844  1.00  0.00    -0.196 OA 
ENDROOT
BRANCH   2   3
HETATM    3  P   UNL     1      -9.807   8.884  67.191  1.00  0.00    -0.253 P  
HETATM    4  S   UNL     1      -8.184   8.799  68.388  1.00  0.00    -0.118 S  
BRANCH   3   5
HETATM    5  N   UNL     1      -9.480   8.000  65.766  1.00  0.00    -0.426 NA 
HETATM    6  H   UNL     1     -10.245   7.473  65.346  1.00  0.00     0.000 HD 
BRANCH   5   7
HETATM    7  C   UNL     1      -8.170   7.951  65.108  1.00  0.00    -0.141 C  
HETATM    8  C   UNL     1      -7.707   6.502  64.943  1.00  0.00    -0.105 C  
HETATM    9  C   UNL     1      -8.163   8.637  63.738  1.00  0.00    -0.145 C  
ENDBRANCH   5   7
ENDBRANCH   3   5
BRANCH   3  10
HETATM   10  O   UNL     1      -9.184  10.360  66.536  1.00  0.00    -0.156 OA 
BRANCH  10  11
HETATM   11  C   UNL     1     -10.018  11.335  66.040  1.00  0.00    -0.231 A  
HETATM   12  C   UNL     1     -10.534  11.312  64.745  1.00  0.00    -0.384 A  
HETATM   13  C   UNL     1     -11.233  12.407  64.228  1.00  0.00    -0.408 A  
HETATM   14  C   UNL     1     -11.501  13.501  65.042  1.00  0.00    -0.318 A  
HETATM   15  C   UNL     1     -11.074  13.509  66.363  1.00  0.00    -0.311 A  
HETATM   16 CL   UNL     1     -12.373  14.839  64.406  1.00  0.00    -0.478 Cl 
HETATM   17  C   UNL     1     -10.321  12.433  66.858  1.00  0.00    -0.224 A  
HETATM   18 CL   UNL     1      -9.809  12.494  68.505  1.00  0.00    -0.191 Cl 
ENDBRANCH  10  11
ENDBRANCH   3  10
ENDBRANCH   2   3
TORSDOF 5
ENDMDL
MODEL      109
REMARK 921   NORMALIZED FREE ENERGY PREDICTED BY IDOCK:   -3.50 KCAL/MOL
REMARK 922        TOTAL FREE ENERGY PREDICTED BY IDOCK:   -4.95 KCAL/MOL
REMARK 923 INTER-LIGAND FREE ENERGY PREDICTED BY IDOCK:   -4.69 KCAL/MOL
REMARK 924 INTRA-LIGAND FREE ENERGY PREDICTED BY IDOCK:   -0.26 KCAL/MOL
REMARK 927      BINDING AFFINITY PREDICTED BY RF-SCORE:    0.00 PKD
ROOT
HETATM    1  C   UNL     1     -10.021  11.826  63.124  1.00  0.00    -0.344 C  
HETATM    2  O   UNL     1     -10.297  11.446  64.460  1.00  0.00    -0.270 OA 
ENDROOT
BRANCH   2   3
HETATM    3  P   UNL     1     -10.363  12.635  65.714  1.00  0.00    -0.285 P  
HETATM    4  S   UNL     1     -12.373  12.760  65.572  1.00  0.00    -0.339 S  
BRANCH   3   5
HETATM    5  N   UNL     1      -9.971  11.373  66.798  1.00  0.00    -0.205 NA 
HETATM    6  H   UNL     1      -8.989  11.117  66.895  1.00  0.00     0.000 HD 
BRANCH   5   7
HETATM    7  C   UNL     1     -10.956  10.637  67.596  1.00  0.00    -0.310 C  
HETATM    8  C   UNL     1     -10.611   9.145  67.630  1.00  0.00    -0.307 C  
HETATM    9  C   UNL     1     -11.069  11.156  69.033  1.00  0.00    -0.299 C  
ENDBRANCH   5   7
ENDBRANCH   3   5
BRANCH   3  10
HETATM   10  O   UNL     1     -10.429  13.825  66.968  1.00  0.00    -0.270 OA 
BRANCH  10  11
HETATM   11  C   UNL     1      -9.767  15.026  66.856  1.00  0.00    -0.238 A  
HETATM   12  C   UNL     1     -10.404  16.222  66.528  1.00  0.00    -0.310 A  
HETATM   13  C   UNL     1      -9.669  17.379  66.254  1.00  0.00    -0.276 A  
HETATM   14  C   UNL     1      -8.288  17.369  66.401  1.00  0.00    -0.267 A  
HETATM   15  C   UNL     1      -7.638  16.214  66.813  1.00  0.00    -0.268 A  
HETATM   16 CL   UNL     1      -7.390  18.799  66.077  1.00  0.00    -0.292 Cl 
HETATM   17  C   UNL     1      -8.375  15.039  67.027  1.00  0.00    -0.222 A  
HETATM   18 CL   UNL     1      -7.519  13.628  67.533  1.00  0.00    -0.185 Cl 
ENDBRANCH  10  11
ENDBRANCH   3  10
ENDBRANCH   2   3
TORSDOF 5
ENDMDL
MODEL      110
REMARK 921   NORMALIZED FREE ENERGY PREDICTED BY IDOCK:   -3.49 KCAL/MOL
REMARK 922        TOTAL FREE ENERGY PREDICTED BY IDOCK:   -4.93 KCAL/MOL
REMARK 923 INTER-LIGAND FREE ENERGY PREDICTED BY IDOCK:   -4.76 KCAL/MOL
REMARK 924 INTRA-LIGAND FREE ENERGY PREDICTED BY IDOCK:   -0.18 KCAL/MOL
REMARK 927      BINDING AFFINITY PREDICTED BY RF-SCORE:    0.00 PKD
ROOT
HETATM    1  C   UNL     1      -8.573  10.688  65.095  1.00  0.00    -0.167 C  
HETATM    2  O   UNL     1      -9.705  10.139  65.744  1.00  0.00    -0.209 OA 
ENDROOT
BRANCH   2   3
HETATM    3  P   UNL     1     -10.058  10.548  67.387  1.00  0.00    -0.219 P  
HETATM    4  S   UNL     1     -11.368  11.972  66.814  1.00  0.00    -0.334 S  
BRANCH   3   5
HETATM    5  N   UNL     1     -10.882   9.055  67.480  1.00  0.00    -0.466 NA 
HETATM    6  H   UNL     1     -11.797   9.043  67.931  1.00  0.00     0.000 HD 
BRANCH   5   7
HETATM    7  C   UNL     1     -10.359   7.790  66.954  1.00  0.00    -0.326 C  
HETATM    8  C   UNL     1      -8.927   7.557  67.443  1.00  0.00    -0.129 C  
HETATM    9  C   UNL     1     -11.221   6.582  67.336  1.00  0.00    -0.301 C  
ENDBRANCH   5   7
ENDBRANCH   3   5
BRANCH   3  10
HETATM   10  O   UNL     1     -10.409  10.958  69.031  1.00  0.00    -0.198 OA 
BRANCH  10  11
HETATM   11  C   UNL     1     -10.455   9.999  70.017  1.00  0.00    -0.287 A  
HETATM   12  C   UNL     1     -11.647   9.514  70.556  1.00  0.00    -0.316 A  
HETATM   13  C   UNL     1     -11.643   8.672  71.672  1.00  0.00    -0.379 A  
HETATM   14  C   UNL     1     -10.435   8.234  72.201  1.00  0.00    -0.301 A  
HETATM   15  C   UNL     1      -9.236   8.632  71.626  1.00  0.00    -0.326 A  
HETATM   16 CL   UNL     1     -10.436   7.188  73.565  1.00  0.00    -0.402 Cl 
HETATM   17  C   UNL     1      -9.245   9.526  70.544  1.00  0.00    -0.225 A  
HETATM   18 CL   UNL     1      -7.728   9.995  69.869  1.00  0.00    -0.171 Cl 
ENDBRANCH  10  11
ENDBRANCH   3  10
ENDBRANCH   2   3
TORSDOF 5
ENDMDL
MODEL      111
REMARK 921   NORMALIZED FREE ENERGY PREDICTED BY IDOCK:   -3.48 KCAL/MOL
REMARK 922        TOTAL FREE ENERGY PREDICTED BY IDOCK:   -4.91 KCAL/MOL
REMARK 923 INTER-LIGAND FREE ENERGY PREDICTED BY IDOCK:   -4.65 KCAL/MOL
REMARK 924 INTRA-LIGAND FREE ENERGY PREDICTED BY IDOCK:   -0.26 KCAL/MOL
REMARK 927      BINDING AFFINITY PREDICTED BY RF-SCORE:    0.00 PKD
ROOT
HETATM    1  C   UNL     1     -11.078   6.624  73.000  1.00  0.00    -0.205 C  
HETATM    2  O   UNL     1     -11.688   7.316  71.925  1.00  0.00    -0.270 OA 
ENDROOT
BRANCH   2   3
HETATM    3  P   UNL     1     -10.849   8.594  71.117  1.00  0.00    -0.307 P  
HETATM    4  S   UNL     1      -9.230   8.360  72.299  1.00  0.00    -0.268 S  
BRANCH   3   5
HETATM    5  N   UNL     1     -10.711   7.531  69.787  1.00  0.00    -0.244 NA 
HETATM    6  H   UNL     1     -11.474   7.512  69.111  1.00  0.00     0.000 HD 
BRANCH   5   7
HETATM    7  C   UNL     1      -9.566   6.645  69.554  1.00  0.00    -0.146 C  
HETATM    8  C   UNL     1     -10.009   5.180  69.568  1.00  0.00    -0.301 C  
HETATM    9  C   UNL     1      -8.843   6.937  68.235  1.00  0.00    -0.122 C  
ENDBRANCH   5   7
ENDBRANCH   3   5
BRANCH   3  10
HETATM   10  O   UNL     1     -10.011   9.873  70.308  1.00  0.00    -0.254 OA 
BRANCH  10  11
HETATM   11  C   UNL     1     -10.523  10.468  69.178  1.00  0.00    -0.228 A  
HETATM   12  C   UNL     1     -10.047  10.204  67.894  1.00  0.00    -0.207 A  
HETATM   13  C   UNL     1     -10.477  10.958  66.798  1.00  0.00    -0.302 A  
HETATM   14  C   UNL     1     -11.463  11.922  66.967  1.00  0.00    -0.316 A  
HETATM   15  C   UNL     1     -12.017  12.141  68.222  1.00  0.00    -0.248 A  
HETATM   16 CL   UNL     1     -11.999  12.835  65.613  1.00  0.00    -0.478 Cl 
HETATM   17  C   UNL     1     -11.537  11.425  69.329  1.00  0.00    -0.317 A  
HETATM   18 CL   UNL     1     -12.254  11.737  70.867  1.00  0.00    -0.436 Cl 
ENDBRANCH  10  11
ENDBRANCH   3  10
ENDBRANCH   2   3
TORSDOF 5
ENDMDL
MODEL      112
REMARK 921   NORMALIZED FREE ENERGY PREDICTED BY IDOCK:   -3.47 KCAL/MOL
REMARK 922        TOTAL FREE ENERGY PREDICTED BY IDOCK:   -4.91 KCAL/MOL
REMARK 923 INTER-LIGAND FREE ENERGY PREDICTED BY IDOCK:   -4.45 KCAL/MOL
REMARK 924 INTRA-LIGAND FREE ENERGY PREDICTED BY IDOCK:   -0.46 KCAL/MOL
REMARK 927      BINDING AFFINITY PREDICTED BY RF-SCORE:    0.00 PKD
ROOT
HETATM    1  C   UNL     1      -6.906   7.220  69.978  1.00  0.00    -0.055 C  
HETATM    2  O   UNL     1      -7.640   8.219  70.663  1.00  0.00    -0.065 OA 
ENDROOT
BRANCH   2   3
HETATM    3  P   UNL     1      -9.245   8.625  70.163  1.00  0.00    -0.175 P  
HETATM    4  S   UNL     1      -9.636   6.711  69.655  1.00  0.00    -0.150 S  
BRANCH   3   5
HETATM    5  N   UNL     1      -9.605   8.834  71.820  1.00  0.00    -0.287 NA 
HETATM    6  H   UNL     1      -9.885   9.763  72.133  1.00  0.00     0.000 HD 
BRANCH   5   7
HETATM    7  C   UNL     1      -9.537   7.763  72.819  1.00  0.00    -0.221 C  
HETATM    8  C   UNL     1      -8.658   8.186  73.999  1.00  0.00    -0.253 C  
HETATM    9  C   UNL     1     -10.915   7.348  73.345  1.00  0.00    -0.292 C  
ENDBRANCH   5   7
ENDBRANCH   3   5
BRANCH   3  10
HETATM   10  O   UNL     1     -10.850   9.033  69.661  1.00  0.00    -0.231 OA 
BRANCH  10  11
HETATM   11  C   UNL     1     -11.113  10.184  68.955  1.00  0.00    -0.207 A  
HETATM   12  C   UNL     1     -10.694  10.385  67.640  1.00  0.00    -0.335 A  
HETATM   13  C   UNL     1     -10.831  11.632  67.023  1.00  0.00    -0.311 A  
HETATM   14  C   UNL     1     -11.478  12.665  67.691  1.00  0.00    -0.334 A  
HETATM   15  C   UNL     1     -11.983  12.461  68.968  1.00  0.00    -0.291 A  
HETATM   16 CL   UNL     1     -11.656  14.192  66.923  1.00  0.00    -0.387 Cl 
HETATM   17  C   UNL     1     -11.788  11.226  69.606  1.00  0.00    -0.360 A  
HETATM   18 CL   UNL     1     -12.430  11.026  71.195  1.00  0.00    -0.494 Cl 
ENDBRANCH  10  11
ENDBRANCH   3  10
ENDBRANCH   2   3
TORSDOF 5
ENDMDL
MODEL      113
REMARK 921   NORMALIZED FREE ENERGY PREDICTED BY IDOCK:   -3.47 KCAL/MOL
REMARK 922        TOTAL FREE ENERGY PREDICTED BY IDOCK:   -4.90 KCAL/MOL
REMARK 923 INTER-LIGAND FREE ENERGY PREDICTED BY IDOCK:   -4.47 KCAL/MOL
REMARK 924 INTRA-LIGAND FREE ENERGY PREDICTED BY IDOCK:   -0.43 KCAL/MOL
REMARK 927      BINDING AFFINITY PREDICTED BY RF-SCORE:    0.00 PKD
ROOT
HETATM    1  C   UNL     1      -8.325  14.594  68.119  1.00  0.00    -0.144 C  
HETATM    2  O   UNL     1      -9.720  14.557  67.875  1.00  0.00    -0.211 OA 
ENDROOT
BRANCH   2   3
HETATM    3  P   UNL     1     -10.458  13.137  67.220  1.00  0.00    -0.244 P  
HETATM    4  S   UNL     1     -11.367  12.727  68.975  1.00  0.00    -0.296 S  
BRANCH   3   5
HETATM    5  N   UNL     1     -11.459  14.190  66.321  1.00  0.00    -0.341 NA 
HETATM    6  H   UNL     1     -12.341  14.483  66.740  1.00  0.00     0.000 HD 
BRANCH   5   7
HETATM    7  C   UNL     1     -11.130  14.701  64.986  1.00  0.00    -0.394 C  
HETATM    8  C   UNL     1     -12.264  14.400  64.002  1.00  0.00    -0.300 C  
HETATM    9  C   UNL     1     -10.846  16.206  64.975  1.00  0.00    -0.380 C  
ENDBRANCH   5   7
ENDBRANCH   3   5
BRANCH   3  10
HETATM   10  O   UNL     1     -11.196  11.716  66.564  1.00  0.00    -0.307 OA 
BRANCH  10  11
HETATM   11  C   UNL     1     -10.469  10.572  66.327  1.00  0.00    -0.183 A  
HETATM   12  C   UNL     1     -10.270   9.581  67.287  1.00  0.00    -0.295 A  
HETATM   13  C   UNL     1      -9.384   8.524  67.060  1.00  0.00    -0.204 A  
HETATM   14  C   UNL     1      -8.759   8.402  65.825  1.00  0.00    -0.169 A  
HETATM   15  C   UNL     1      -9.010   9.328  64.821  1.00  0.00    -0.217 A  
HETATM   16 CL   UNL     1      -7.681   7.093  65.545  1.00  0.00    -0.101 Cl 
HETATM   17  C   UNL     1      -9.853  10.421  65.076  1.00  0.00    -0.319 A  
HETATM   18 CL   UNL     1     -10.128  11.546  63.797  1.00  0.00    -0.362 Cl 
ENDBRANCH  10  11
ENDBRANCH   3  10
ENDBRANCH   2   3
TORSDOF 5
ENDMDL
MODEL      114
REMARK 921   NORMALIZED FREE ENERGY PREDICTED BY IDOCK:   -3.45 KCAL/MOL
REMARK 922        TOTAL FREE ENERGY PREDICTED BY IDOCK:   -4.88 KCAL/MOL
REMARK 923 INTER-LIGAND FREE ENERGY PREDICTED BY IDOCK:   -4.69 KCAL/MOL
REMARK 924 INTRA-LIGAND FREE ENERGY PREDICTED BY IDOCK:   -0.19 KCAL/MOL
REMARK 927      BINDING AFFINITY PREDICTED BY RF-SCORE:    0.00 PKD
ROOT
HETATM    1  C   UNL     1     -11.971  11.177  69.103  1.00  0.00    -0.343 C  
HETATM    2  O   UNL     1     -10.831  11.991  69.309  1.00  0.00    -0.184 OA 
ENDROOT
BRANCH   2   3
HETATM    3  P   UNL     1     -10.060  12.775  67.974  1.00  0.00    -0.237 P  
HETATM    4  S   UNL     1     -11.770  12.760  66.901  1.00  0.00    -0.366 S  
BRANCH   3   5
HETATM    5  N   UNL     1     -10.035  14.183  68.941  1.00  0.00    -0.374 NA 
HETATM    6  H   UNL     1      -9.138  14.644  69.088  1.00  0.00     0.000 HD 
BRANCH   5   7
HETATM    7  C   UNL     1     -11.221  14.771  69.572  1.00  0.00    -0.278 C  
HETATM    8  C   UNL     1     -10.931  15.129  71.032  1.00  0.00    -0.216 C  
HETATM    9  C   UNL     1     -11.729  16.019  68.843  1.00  0.00    -0.322 C  
ENDBRANCH   5   7
ENDBRANCH   3   5
BRANCH   3  10
HETATM   10  O   UNL     1      -9.288  13.558  66.639  1.00  0.00    -0.255 OA 
BRANCH  10  11
HETATM   11  C   UNL     1      -8.732  14.811  66.763  1.00  0.00    -0.224 A  
HETATM   12  C   UNL     1      -7.619  15.077  67.561  1.00  0.00    -0.216 A  
HETATM   13  C   UNL     1      -7.197  16.389  67.793  1.00  0.00    -0.155 A  
HETATM   14  C   UNL     1      -7.833  17.443  67.149  1.00  0.00    -0.202 A  
HETATM   15  C   UNL     1      -8.887  17.196  66.280  1.00  0.00    -0.266 A  
HETATM   16 CL   UNL     1      -7.300  19.053  67.428  1.00  0.00    -0.241 Cl 
HETATM   17  C   UNL     1      -9.346  15.882  66.098  1.00  0.00    -0.350 A  
HETATM   18 CL   UNL     1     -10.663  15.628  65.012  1.00  0.00    -0.460 Cl 
ENDBRANCH  10  11
ENDBRANCH   3  10
ENDBRANCH   2   3
TORSDOF 5
ENDMDL
MODEL      115
REMARK 921   NORMALIZED FREE ENERGY PREDICTED BY IDOCK:   -3.44 KCAL/MOL
REMARK 922        TOTAL FREE ENERGY PREDICTED BY IDOCK:   -4.87 KCAL/MOL
REMARK 923 INTER-LIGAND FREE ENERGY PREDICTED BY IDOCK:   -4.35 KCAL/MOL
REMARK 924 INTRA-LIGAND FREE ENERGY PREDICTED BY IDOCK:   -0.51 KCAL/MOL
REMARK 927      BINDING AFFINITY PREDICTED BY RF-SCORE:    0.00 PKD
ROOT
HETATM    1  C   UNL     1      -9.475  15.270  66.682  1.00  0.00    -0.259 C  
HETATM    2  O   UNL     1      -9.250  13.986  66.130  1.00  0.00    -0.172 OA 
ENDROOT
BRANCH   2   3
HETATM    3  P   UNL     1     -10.066  12.602  66.769  1.00  0.00    -0.245 P  
HETATM    4  S   UNL     1     -10.800  13.673  68.315  1.00  0.00    -0.260 S  
BRANCH   3   5
HETATM    5  N   UNL     1     -11.140  12.747  65.448  1.00  0.00    -0.279 NA 
HETATM    6  H   UNL     1     -11.720  13.584  65.395  1.00  0.00     0.000 HD 
BRANCH   5   7
HETATM    7  C   UNL     1     -11.280  11.746  64.386  1.00  0.00    -0.316 C  
HETATM    8  C   UNL     1     -12.365  12.167  63.391  1.00  0.00    -0.648 C  
HETATM    9  C   UNL     1      -9.974  11.495  63.625  1.00  0.00    -0.409 C  
ENDBRANCH   5   7
ENDBRANCH   3   5
BRANCH   3  10
HETATM   10  O   UNL     1     -10.883  11.216  67.407  1.00  0.00    -0.232 OA 
BRANCH  10  11
HETATM   11  C   UNL     1     -10.190  10.109  67.841  1.00  0.00    -0.180 A  
HETATM   12  C   UNL     1      -9.315   9.389  67.029  1.00  0.00    -0.185 A  
HETATM   13  C   UNL     1      -8.769   8.175  67.457  1.00  0.00    -0.129 A  
HETATM   14  C   UNL     1      -9.024   7.720  68.744  1.00  0.00    -0.141 A  
HETATM   15  C   UNL     1      -9.821   8.465  69.603  1.00  0.00    -0.184 A  
HETATM   16 CL   UNL     1      -8.338   6.234  69.270  1.00  0.00    -0.116 Cl 
HETATM   17  C   UNL     1     -10.416   9.651  69.148  1.00  0.00    -0.214 A  
HETATM   18 CL   UNL     1     -11.402  10.538  70.252  1.00  0.00    -0.384 Cl 
ENDBRANCH  10  11
ENDBRANCH   3  10
ENDBRANCH   2   3
TORSDOF 5
ENDMDL
MODEL      116
REMARK 921   NORMALIZED FREE ENERGY PREDICTED BY IDOCK:   -3.42 KCAL/MOL
REMARK 922        TOTAL FREE ENERGY PREDICTED BY IDOCK:   -4.85 KCAL/MOL
REMARK 923 INTER-LIGAND FREE ENERGY PREDICTED BY IDOCK:   -4.31 KCAL/MOL
REMARK 924 INTRA-LIGAND FREE ENERGY PREDICTED BY IDOCK:   -0.54 KCAL/MOL
REMARK 927      BINDING AFFINITY PREDICTED BY RF-SCORE:    0.00 PKD
ROOT
HETATM    1  C   UNL     1     -10.462   4.899  65.966  1.00  0.00    -0.283 C  
HETATM    2  O   UNL     1     -10.242   5.267  67.316  1.00  0.00    -0.187 OA 
ENDROOT
BRANCH   2   3
HETATM    3  P   UNL     1     -10.351   6.924  67.801  1.00  0.00    -0.257 P  
HETATM    4  S   UNL     1     -11.342   6.427  69.488  1.00  0.00    -0.330 S  
BRANCH   3   5
HETATM    5  N   UNL     1      -8.673   6.842  68.110  1.00  0.00    -0.126 NA 
HETATM    6  H   UNL     1      -8.373   6.523  69.031  1.00  0.00     0.000 HD 
BRANCH   5   7
HETATM    7  C   UNL     1      -7.637   7.201  67.137  1.00  0.00    -0.103 C  
HETATM    8  C   UNL     1      -6.787   8.361  67.661  1.00  0.00    -0.067 C  
HETATM    9  C   UNL     1      -6.718   6.028  66.783  1.00  0.00    -0.057 C  
ENDBRANCH   5   7
ENDBRANCH   3   5
BRANCH   3  10
HETATM   10  O   UNL     1     -10.461   8.581  68.285  1.00  0.00    -0.210 OA 
BRANCH  10  11
HETATM   11  C   UNL     1     -10.591   9.593  67.362  1.00  0.00    -0.268 A  
HETATM   12  C   UNL     1     -10.099   9.507  66.060  1.00  0.00    -0.319 A  
HETATM   13  C   UNL     1     -10.099  10.621  65.215  1.00  0.00    -0.363 A  
HETATM   14  C   UNL     1     -10.681  11.809  65.639  1.00  0.00    -0.280 A  
HETATM   15  C   UNL     1     -11.257  11.892  66.900  1.00  0.00    -0.382 A  
HETATM   16 CL   UNL     1     -10.691  13.171  64.591  1.00  0.00    -0.368 Cl 
HETATM   17  C   UNL     1     -11.199  10.790  67.767  1.00  0.00    -0.316 A  
HETATM   18 CL   UNL     1     -11.925  10.947  69.325  1.00  0.00    -0.391 Cl 
ENDBRANCH  10  11
ENDBRANCH   3  10
ENDBRANCH   2   3
TORSDOF 5
ENDMDL
MODEL      117
REMARK 921   NORMALIZED FREE ENERGY PREDICTED BY IDOCK:   -3.42 KCAL/MOL
REMARK 922        TOTAL FREE ENERGY PREDICTED BY IDOCK:   -4.84 KCAL/MOL
REMARK 923 INTER-LIGAND FREE ENERGY PREDICTED BY IDOCK:   -4.15 KCAL/MOL
REMARK 924 INTRA-LIGAND FREE ENERGY PREDICTED BY IDOCK:   -0.70 KCAL/MOL
REMARK 927      BINDING AFFINITY PREDICTED BY RF-SCORE:    0.00 PKD
ROOT
HETATM    1  C   UNL     1     -10.190   4.898  66.411  1.00  0.00    -0.278 C  
HETATM    2  O   UNL     1      -9.167   5.682  66.998  1.00  0.00    -0.115 OA 
ENDROOT
BRANCH   2   3
HETATM    3  P   UNL     1      -9.254   6.131  68.666  1.00  0.00    -0.122 P  
HETATM    4  S   UNL     1      -8.016   4.627  69.197  1.00  0.00    -0.070 S  
BRANCH   3   5
HETATM    5  N   UNL     1      -8.310   7.492  68.248  1.00  0.00    -0.125 NA 
HETATM    6  H   UNL     1      -7.302   7.365  68.163  1.00  0.00     0.000 HD 
BRANCH   5   7
HETATM    7  C   UNL     1      -8.856   8.831  68.004  1.00  0.00    -0.141 C  
HETATM    8  C   UNL     1     -10.366   8.758  67.761  1.00  0.00    -0.297 C  
HETATM    9  C   UNL     1      -8.582   9.806  69.153  1.00  0.00    -0.153 C  
ENDBRANCH   5   7
ENDBRANCH   3   5
BRANCH   3  10
HETATM   10  O   UNL     1      -9.342   6.580  70.334  1.00  0.00    -0.161 OA 
BRANCH  10  11
HETATM   11  C   UNL     1     -10.516   7.025  70.898  1.00  0.00    -0.214 A  
HETATM   12  C   UNL     1     -11.775   6.600  70.476  1.00  0.00    -0.453 A  
HETATM   13  C   UNL     1     -12.939   7.207  70.958  1.00  0.00    -0.231 A  
HETATM   14  C   UNL     1     -12.851   8.185  71.941  1.00  0.00    -0.335 A  
HETATM   15  C   UNL     1     -11.612   8.561  72.442  1.00  0.00    -0.425 A  
HETATM   16 CL   UNL     1     -14.286   8.917  72.540  1.00  0.00    -0.485 Cl 
HETATM   17  C   UNL     1     -10.444   7.993  71.911  1.00  0.00    -0.236 A  
HETATM   18 CL   UNL     1      -8.928   8.499  72.563  1.00  0.00    -0.306 Cl 
ENDBRANCH  10  11
ENDBRANCH   3  10
ENDBRANCH   2   3
TORSDOF 5
ENDMDL
MODEL      118
REMARK 921   NORMALIZED FREE ENERGY PREDICTED BY IDOCK:   -3.41 KCAL/MOL
REMARK 922        TOTAL FREE ENERGY PREDICTED BY IDOCK:   -4.83 KCAL/MOL
REMARK 923 INTER-LIGAND FREE ENERGY PREDICTED BY IDOCK:   -4.34 KCAL/MOL
REMARK 924 INTRA-LIGAND FREE ENERGY PREDICTED BY IDOCK:   -0.49 KCAL/MOL
REMARK 927      BINDING AFFINITY PREDICTED BY RF-SCORE:    0.00 PKD
ROOT
HETATM    1  C   UNL     1      -8.988   3.854  67.645  1.00  0.00    -0.133 C  
HETATM    2  O   UNL     1     -10.011   4.776  67.973  1.00  0.00    -0.146 OA 
ENDROOT
BRANCH   2   3
HETATM    3  P   UNL     1      -9.761   5.960  69.208  1.00  0.00    -0.162 P  
HETATM    4  S   UNL     1      -8.907   4.596  70.427  1.00  0.00    -0.101 S  
BRANCH   3   5
HETATM    5  N   UNL     1      -8.553   6.619  68.196  1.00  0.00    -0.116 NA 
HETATM    6  H   UNL     1      -7.592   6.308  68.337  1.00  0.00     0.000 HD 
BRANCH   5   7
HETATM    7  C   UNL     1      -8.809   7.603  67.140  1.00  0.00    -0.125 C  
HETATM    8  C   UNL     1      -8.137   7.174  65.833  1.00  0.00    -0.122 C  
HETATM    9  C   UNL     1     -10.302   7.830  66.883  1.00  0.00    -0.396 C  
ENDBRANCH   5   7
ENDBRANCH   3   5
BRANCH   3  10
HETATM   10  O   UNL     1      -9.512   7.145  70.444  1.00  0.00    -0.162 OA 
BRANCH  10  11
HETATM   11  C   UNL     1     -10.431   8.142  70.681  1.00  0.00    -0.210 A  
HETATM   12  C   UNL     1     -10.383   9.389  70.059  1.00  0.00    -0.265 A  
HETATM   13  C   UNL     1     -11.230  10.426  70.459  1.00  0.00    -0.395 A  
HETATM   14  C   UNL     1     -12.201  10.191  71.426  1.00  0.00    -0.397 A  
HETATM   15  C   UNL     1     -12.326   8.932  71.996  1.00  0.00    -0.460 A  
HETATM   16 CL   UNL     1     -13.249  11.466  71.903  1.00  0.00    -0.563 Cl 
HETATM   17  C   UNL     1     -11.433   7.911  71.635  1.00  0.00    -0.263 A  
HETATM   18 CL   UNL     1     -11.627   6.365  72.377  1.00  0.00    -0.321 Cl 
ENDBRANCH  10  11
ENDBRANCH   3  10
ENDBRANCH   2   3
TORSDOF 5
ENDMDL
MODEL      119
REMARK 921   NORMALIZED FREE ENERGY PREDICTED BY IDOCK:   -3.40 KCAL/MOL
REMARK 922        TOTAL FREE ENERGY PREDICTED BY IDOCK:   -4.81 KCAL/MOL
REMARK 923 INTER-LIGAND FREE ENERGY PREDICTED BY IDOCK:   -4.53 KCAL/MOL
REMARK 924 INTRA-LIGAND FREE ENERGY PREDICTED BY IDOCK:   -0.28 KCAL/MOL
REMARK 927      BINDING AFFINITY PREDICTED BY RF-SCORE:    0.00 PKD
ROOT
HETATM    1  C   UNL     1     -10.459   6.278  66.763  1.00  0.00    -0.244 C  
HETATM    2  O   UNL     1     -10.755   7.644  66.993  1.00  0.00    -0.348 OA 
ENDROOT
BRANCH   2   3
HETATM    3  P   UNL     1     -10.722   8.290  68.596  1.00  0.00     0.155 P  
HETATM    4  S   UNL     1     -11.042   6.468  69.402  1.00  0.00    -0.344 S  
BRANCH   3   5
HETATM    5  N   UNL     1      -9.041   8.499  68.372  1.00  0.00    -0.139 NA 
HETATM    6  H   UNL     1      -8.723   9.360  67.928  1.00  0.00     0.000 HD 
BRANCH   5   7
HETATM    7  C   UNL     1      -8.027   7.521  68.778  1.00  0.00    -0.126 C  
HETATM    8  C   UNL     1      -6.854   7.525  67.795  1.00  0.00    -0.071 C  
HETATM    9  C   UNL     1      -7.495   7.764  70.194  1.00  0.00    -0.083 C  
ENDBRANCH   5   7
ENDBRANCH   3   5
BRANCH   3  10
HETATM   10  O   UNL     1     -10.689   8.938  70.200  1.00  0.00    -0.216 OA 
BRANCH  10  11
HETATM   11  C   UNL     1     -11.498   9.988  70.569  1.00  0.00    -0.330 A  
HETATM   12  C   UNL     1     -11.378  11.270  70.035  1.00  0.00    -0.292 A  
HETATM   13  C   UNL     1     -12.103  12.342  70.563  1.00  0.00    -0.371 A  
HETATM   14  C   UNL     1     -13.029  12.117  71.575  1.00  0.00    -0.295 A  
HETATM   15  C   UNL     1     -13.231  10.832  72.063  1.00  0.00    -0.466 A  
HETATM   16 CL   UNL     1     -13.928  13.436  72.211  1.00  0.00    -0.640 Cl 
HETATM   17  C   UNL     1     -12.456   9.770  71.571  1.00  0.00    -0.403 A  
HETATM   18 CL   UNL     1     -12.742   8.195  72.213  1.00  0.00    -0.318 Cl 
ENDBRANCH  10  11
ENDBRANCH   3  10
ENDBRANCH   2   3
TORSDOF 5
ENDMDL
MODEL      120
REMARK 921   NORMALIZED FREE ENERGY PREDICTED BY IDOCK:   -3.40 KCAL/MOL
REMARK 922        TOTAL FREE ENERGY PREDICTED BY IDOCK:   -4.81 KCAL/MOL
REMARK 923 INTER-LIGAND FREE ENERGY PREDICTED BY IDOCK:   -4.34 KCAL/MOL
REMARK 924 INTRA-LIGAND FREE ENERGY PREDICTED BY IDOCK:   -0.47 KCAL/MOL
REMARK 927      BINDING AFFINITY PREDICTED BY RF-SCORE:    0.00 PKD
ROOT
HETATM    1  C   UNL     1      -6.732   8.229  67.941  1.00  0.00    -0.065 C  
HETATM    2  O   UNL     1      -7.812   8.844  68.619  1.00  0.00    -0.099 OA 
ENDROOT
BRANCH   2   3
HETATM    3  P   UNL     1      -9.246   9.292  67.761  1.00  0.00    -0.128 P  
HETATM    4  S   UNL     1      -8.823   8.005  66.264  1.00  0.00    -0.169 S  
BRANCH   3   5
HETATM    5  N   UNL     1     -10.114   8.454  68.971  1.00  0.00    -0.197 NA 
HETATM    6  H   UNL     1     -11.059   8.142  68.749  1.00  0.00     0.000 HD 
BRANCH   5   7
HETATM    7  C   UNL     1      -9.588   8.155  70.306  1.00  0.00    -0.171 C  
HETATM    8  C   UNL     1     -10.163   9.126  71.340  1.00  0.00    -0.402 C  
HETATM    9  C   UNL     1      -9.877   6.719  70.755  1.00  0.00    -0.194 C  
ENDBRANCH   5   7
ENDBRANCH   3   5
BRANCH   3  10
HETATM   10  O   UNL     1     -10.680   9.740  66.903  1.00  0.00    -0.205 OA 
BRANCH  10  11
HETATM   11  C   UNL     1     -10.844  11.006  66.389  1.00  0.00    -0.191 A  
HETATM   12  C   UNL     1     -10.438  11.366  65.104  1.00  0.00    -0.351 A  
HETATM   13  C   UNL     1     -10.466  12.700  64.687  1.00  0.00    -0.361 A  
HETATM   14  C   UNL     1     -10.991  13.674  65.528  1.00  0.00    -0.293 A  
HETATM   15  C   UNL     1     -11.483  13.326  66.778  1.00  0.00    -0.387 A  
HETATM   16 CL   UNL     1     -11.035  15.311  65.005  1.00  0.00    -0.426 Cl 
HETATM   17  C   UNL     1     -11.397  11.995  67.214  1.00  0.00    -0.330 A  
HETATM   18 CL   UNL     1     -12.019  11.614  68.779  1.00  0.00    -0.368 Cl 
ENDBRANCH  10  11
ENDBRANCH   3  10
ENDBRANCH   2   3
TORSDOF 5
ENDMDL
MODEL      121
REMARK 921   NORMALIZED FREE ENERGY PREDICTED BY IDOCK:   -3.40 KCAL/MOL
REMARK 922        TOTAL FREE ENERGY PREDICTED BY IDOCK:   -4.81 KCAL/MOL
REMARK 923 INTER-LIGAND FREE ENERGY PREDICTED BY IDOCK:   -4.34 KCAL/MOL
REMARK 924 INTRA-LIGAND FREE ENERGY PREDICTED BY IDOCK:   -0.47 KCAL/MOL
REMARK 927      BINDING AFFINITY PREDICTED BY RF-SCORE:    0.00 PKD
ROOT
HETATM    1  C   UNL     1      -9.930   5.263  69.244  1.00  0.00    -0.215 C  
HETATM    2  O   UNL     1     -10.047   5.591  70.617  1.00  0.00    -0.195 OA 
ENDROOT
BRANCH   2   3
HETATM    3  P   UNL     1     -10.342   7.224  71.105  1.00  0.00    -0.196 P  
HETATM    4  S   UNL     1     -12.249   6.792  71.608  1.00  0.00    -0.359 S  
BRANCH   3   5
HETATM    5  N   UNL     1      -9.338   6.901  72.449  1.00  0.00    -0.137 NA 
HETATM    6  H   UNL     1      -9.615   6.151  73.082  1.00  0.00     0.000 HD 
BRANCH   5   7
HETATM    7  C   UNL     1      -8.104   7.632  72.750  1.00  0.00    -0.113 C  
HETATM    8  C   UNL     1      -7.183   6.789  73.637  1.00  0.00    -0.078 C  
HETATM    9  C   UNL     1      -7.337   8.055  71.493  1.00  0.00    -0.073 C  
ENDBRANCH   5   7
ENDBRANCH   3   5
BRANCH   3  10
HETATM   10  O   UNL     1     -10.637   8.857  71.593  1.00  0.00    -0.296 OA 
BRANCH  10  11
HETATM   11  C   UNL     1     -10.873   9.852  70.672  1.00  0.00    -0.330 A  
HETATM   12  C   UNL     1     -10.004  10.140  69.620  1.00  0.00    -0.262 A  
HETATM   13  C   UNL     1     -10.195  11.267  68.815  1.00  0.00    -0.215 A  
HETATM   14  C   UNL     1     -11.317  12.065  69.001  1.00  0.00    -0.275 A  
HETATM   15  C   UNL     1     -12.244  11.747  69.985  1.00  0.00    -0.317 A  
HETATM   16 CL   UNL     1     -11.555  13.441  67.999  1.00  0.00    -0.348 Cl 
HETATM   17  C   UNL     1     -12.015  10.650  70.830  1.00  0.00    -0.374 A  
HETATM   18 CL   UNL     1     -13.194  10.300  72.040  1.00  0.00    -0.559 Cl 
ENDBRANCH  10  11
ENDBRANCH   3  10
ENDBRANCH   2   3
TORSDOF 5
ENDMDL
MODEL      122
REMARK 921   NORMALIZED FREE ENERGY PREDICTED BY IDOCK:   -3.39 KCAL/MOL
REMARK 922        TOTAL FREE ENERGY PREDICTED BY IDOCK:   -4.80 KCAL/MOL
REMARK 923 INTER-LIGAND FREE ENERGY PREDICTED BY IDOCK:   -4.41 KCAL/MOL
REMARK 924 INTRA-LIGAND FREE ENERGY PREDICTED BY IDOCK:   -0.40 KCAL/MOL
REMARK 927      BINDING AFFINITY PREDICTED BY RF-SCORE:    0.00 PKD
ROOT
HETATM    1  C   UNL     1      -9.186  14.067  67.419  1.00  0.00    -0.216 C  
HETATM    2  O   UNL     1      -9.675  13.099  66.508  1.00  0.00    -0.257 OA 
ENDROOT
BRANCH   2   3
HETATM    3  P   UNL     1     -10.368  11.624  67.085  1.00  0.00    -0.232 P  
HETATM    4  S   UNL     1     -11.695  12.625  68.230  1.00  0.00    -0.330 S  
BRANCH   3   5
HETATM    5  N   UNL     1     -11.030  11.437  65.521  1.00  0.00    -0.229 NA 
HETATM    6  H   UNL     1     -11.949  11.840  65.342  1.00  0.00     0.000 HD 
BRANCH   5   7
HETATM    7  C   UNL     1     -10.361  10.735  64.422  1.00  0.00    -0.335 C  
HETATM    8  C   UNL     1     -10.098  11.691  63.256  1.00  0.00    -0.454 C  
HETATM    9  C   UNL     1      -9.038  10.086  64.844  1.00  0.00    -0.265 C  
ENDBRANCH   5   7
ENDBRANCH   3   5
BRANCH   3  10
HETATM   10  O   UNL     1     -11.060  10.147  67.663  1.00  0.00    -0.301 OA 
BRANCH  10  11
HETATM   11  C   UNL     1     -10.426   9.378  68.611  1.00  0.00    -0.209 A  
HETATM   12  C   UNL     1      -9.929   9.895  69.806  1.00  0.00    -0.275 A  
HETATM   13  C   UNL     1      -9.141   9.114  70.657  1.00  0.00    -0.307 A  
HETATM   14  C   UNL     1      -8.925   7.774  70.360  1.00  0.00    -0.147 A  
HETATM   15  C   UNL     1      -9.485   7.213  69.221  1.00  0.00    -0.152 A  
HETATM   16 CL   UNL     1      -7.968   6.814  71.417  1.00  0.00    -0.108 Cl 
HETATM   17  C   UNL     1     -10.223   8.017  68.339  1.00  0.00    -0.207 A  
HETATM   18 CL   UNL     1     -10.894   7.273  66.933  1.00  0.00    -0.384 Cl 
ENDBRANCH  10  11
ENDBRANCH   3  10
ENDBRANCH   2   3
TORSDOF 5
ENDMDL
MODEL      123
REMARK 921   NORMALIZED FREE ENERGY PREDICTED BY IDOCK:   -3.38 KCAL/MOL
REMARK 922        TOTAL FREE ENERGY PREDICTED BY IDOCK:   -4.79 KCAL/MOL
REMARK 923 INTER-LIGAND FREE ENERGY PREDICTED BY IDOCK:   -4.47 KCAL/MOL
REMARK 924 INTRA-LIGAND FREE ENERGY PREDICTED BY IDOCK:   -0.32 KCAL/MOL
REMARK 927      BINDING AFFINITY PREDICTED BY RF-SCORE:    0.00 PKD
ROOT
HETATM    1  C   UNL     1     -11.625   6.605  70.030  1.00  0.00    -0.362 C  
HETATM    2  O   UNL     1     -11.652   7.762  70.848  1.00  0.00    -0.281 OA 
ENDROOT
BRANCH   2   3
HETATM    3  P   UNL     1     -10.984   9.252  70.280  1.00  0.00    -0.248 P  
HETATM    4  S   UNL     1     -12.347  10.326  71.312  1.00  0.00    -0.421 S  
BRANCH   3   5
HETATM    5  N   UNL     1      -9.654   8.933  71.303  1.00  0.00    -0.253 NA 
HETATM    6  H   UNL     1      -9.716   9.236  72.275  1.00  0.00     0.000 HD 
BRANCH   5   7
HETATM    7  C   UNL     1      -8.429   8.251  70.874  1.00  0.00    -0.132 C  
HETATM    8  C   UNL     1      -7.259   9.237  70.815  1.00  0.00    -0.126 C  
HETATM    9  C   UNL     1      -8.048   7.078  71.783  1.00  0.00    -0.099 C  
ENDBRANCH   5   7
ENDBRANCH   3   5
BRANCH   3  10
HETATM   10  O   UNL     1     -10.315  10.743  69.711  1.00  0.00    -0.171 OA 
BRANCH  10  11
HETATM   11  C   UNL     1     -10.680  11.278  68.497  1.00  0.00    -0.201 A  
HETATM   12  C   UNL     1     -11.559  12.353  68.369  1.00  0.00    -0.373 A  
HETATM   13  C   UNL     1     -12.035  12.749  67.116  1.00  0.00    -0.351 A  
HETATM   14  C   UNL     1     -11.557  12.129  65.969  1.00  0.00    -0.358 A  
HETATM   15  C   UNL     1     -10.613  11.115  66.065  1.00  0.00    -0.298 A  
HETATM   16 CL   UNL     1     -12.135  12.630  64.429  1.00  0.00    -0.454 Cl 
HETATM   17  C   UNL     1     -10.185  10.680  67.329  1.00  0.00    -0.208 A  
HETATM   18 CL   UNL     1      -9.014   9.414  67.396  1.00  0.00    -0.131 Cl 
ENDBRANCH  10  11
ENDBRANCH   3  10
ENDBRANCH   2   3
TORSDOF 5
ENDMDL
MODEL      124
REMARK 921   NORMALIZED FREE ENERGY PREDICTED BY IDOCK:   -3.37 KCAL/MOL
REMARK 922        TOTAL FREE ENERGY PREDICTED BY IDOCK:   -4.78 KCAL/MOL
REMARK 923 INTER-LIGAND FREE ENERGY PREDICTED BY IDOCK:   -4.41 KCAL/MOL
REMARK 924 INTRA-LIGAND FREE ENERGY PREDICTED BY IDOCK:   -0.37 KCAL/MOL
REMARK 927      BINDING AFFINITY PREDICTED BY RF-SCORE:    0.00 PKD
ROOT
HETATM    1  C   UNL     1      -8.525   7.728  65.686  1.00  0.00    -0.141 C  
HETATM    2  O   UNL     1      -9.697   8.469  65.973  1.00  0.00    -0.222 OA 
ENDROOT
BRANCH   2   3
HETATM    3  P   UNL     1     -10.103   8.869  67.606  1.00  0.00    -0.249 P  
HETATM    4  S   UNL     1      -8.210   9.450  67.997  1.00  0.00    -0.115 S  
BRANCH   3   5
HETATM    5  N   UNL     1     -10.960  10.201  66.963  1.00  0.00    -0.160 NA 
HETATM    6  H   UNL     1     -11.724  10.008  66.316  1.00  0.00     0.000 HD 
BRANCH   5   7
HETATM    7  C   UNL     1     -10.666  11.601  67.282  1.00  0.00    -0.238 C  
HETATM    8  C   UNL     1     -10.205  12.352  66.030  1.00  0.00    -0.267 C  
HETATM    9  C   UNL     1     -11.862  12.338  67.894  1.00  0.00    -0.358 C  
ENDBRANCH   5   7
ENDBRANCH   3   5
BRANCH   3  10
HETATM   10  O   UNL     1     -10.510   9.269  69.239  1.00  0.00    -0.210 OA 
BRANCH  10  11
HETATM   11  C   UNL     1     -10.665   8.297  70.200  1.00  0.00    -0.239 A  
HETATM   12  C   UNL     1     -10.048   7.049  70.131  1.00  0.00    -0.197 A  
HETATM   13  C   UNL     1     -10.370   6.034  71.036  1.00  0.00    -0.270 A  
HETATM   14  C   UNL     1     -11.249   6.295  72.081  1.00  0.00    -0.282 A  
HETATM   15  C   UNL     1     -11.809   7.557  72.223  1.00  0.00    -0.331 A  
HETATM   16 CL   UNL     1     -11.632   5.047  73.199  1.00  0.00    -0.373 Cl 
HETATM   17  C   UNL     1     -11.528   8.554  71.275  1.00  0.00    -0.277 A  
HETATM   18 CL   UNL     1     -12.253  10.105  71.494  1.00  0.00    -0.476 Cl 
ENDBRANCH  10  11
ENDBRANCH   3  10
ENDBRANCH   2   3
TORSDOF 5
ENDMDL
MODEL      125
REMARK 921   NORMALIZED FREE ENERGY PREDICTED BY IDOCK:   -3.36 KCAL/MOL
REMARK 922        TOTAL FREE ENERGY PREDICTED BY IDOCK:   -4.76 KCAL/MOL
REMARK 923 INTER-LIGAND FREE ENERGY PREDICTED BY IDOCK:   -4.20 KCAL/MOL
REMARK 924 INTRA-LIGAND FREE ENERGY PREDICTED BY IDOCK:   -0.56 KCAL/MOL
REMARK 927      BINDING AFFINITY PREDICTED BY RF-SCORE:    0.00 PKD
ROOT
HETATM    1  C   UNL     1      -8.313  13.935  68.121  1.00  0.00    -0.163 C  
HETATM    2  O   UNL     1      -9.490  13.373  67.568  1.00  0.00    -0.206 OA 
ENDROOT
BRANCH   2   3
HETATM    3  P   UNL     1     -10.075  11.843  68.121  1.00  0.00    -0.204 P  
HETATM    4  S   UNL     1     -11.911  12.202  67.364  1.00  0.00    -0.117 S  
BRANCH   3   5
HETATM    5  N   UNL     1      -9.108  11.141  66.899  1.00  0.00    -0.156 NA 
HETATM    6  H   UNL     1      -8.229  11.602  66.664  1.00  0.00     0.000 HD 
BRANCH   5   7
HETATM    7  C   UNL     1      -9.462   9.921  66.167  1.00  0.00    -0.200 C  
HETATM    8  C   UNL     1      -9.744  10.240  64.697  1.00  0.00    -0.398 C  
HETATM    9  C   UNL     1      -8.377   8.842  66.246  1.00  0.00    -0.119 C  
ENDBRANCH   5   7
ENDBRANCH   3   5
BRANCH   3  10
HETATM   10  O   UNL     1     -10.659  10.311  68.676  1.00  0.00    -0.186 OA 
BRANCH  10  11
HETATM   11  C   UNL     1     -10.251   9.777  69.877  1.00  0.00    -0.254 A  
HETATM   12  C   UNL     1      -8.937   9.386  70.131  1.00  0.00    -0.256 A  
HETATM   13  C   UNL     1      -8.605   8.691  71.298  1.00  0.00    -0.236 A  
HETATM   14  C   UNL     1      -9.576   8.464  72.266  1.00  0.00    -0.304 A  
HETATM   15  C   UNL     1     -10.873   8.923  72.074  1.00  0.00    -0.404 A  
HETATM   16 CL   UNL     1      -9.160   7.622  73.704  1.00  0.00    -0.301 Cl 
HETATM   17  C   UNL     1     -11.214   9.566  70.874  1.00  0.00    -0.341 A  
HETATM   18 CL   UNL     1     -12.839  10.113  70.682  1.00  0.00    -0.350 Cl 
ENDBRANCH  10  11
ENDBRANCH   3  10
ENDBRANCH   2   3
TORSDOF 5
ENDMDL
MODEL      126
REMARK 921   NORMALIZED FREE ENERGY PREDICTED BY IDOCK:   -3.35 KCAL/MOL
REMARK 922        TOTAL FREE ENERGY PREDICTED BY IDOCK:   -4.75 KCAL/MOL
REMARK 923 INTER-LIGAND FREE ENERGY PREDICTED BY IDOCK:   -4.38 KCAL/MOL
REMARK 924 INTRA-LIGAND FREE ENERGY PREDICTED BY IDOCK:   -0.37 KCAL/MOL
REMARK 927      BINDING AFFINITY PREDICTED BY RF-SCORE:    0.00 PKD
ROOT
HETATM    1  C   UNL     1     -10.391   6.550  74.111  1.00  0.00    -0.329 C  
HETATM    2  O   UNL     1     -11.067   7.462  73.263  1.00  0.00    -0.365 OA 
ENDROOT
BRANCH   2   3
HETATM    3  P   UNL     1     -10.201   8.335  72.047  1.00  0.00    -0.324 P  
HETATM    4  S   UNL     1      -8.467   8.148  73.063  1.00  0.00    -0.206 S  
BRANCH   3   5
HETATM    5  N   UNL     1     -10.402   6.959  71.054  1.00  0.00    -0.204 NA 
HETATM    6  H   UNL     1     -11.303   6.831  70.594  1.00  0.00     0.000 HD 
BRANCH   5   7
HETATM    7  C   UNL     1      -9.363   5.952  70.821  1.00  0.00    -0.160 C  
HETATM    8  C   UNL     1      -9.975   4.549  70.778  1.00  0.00    -0.269 C  
HETATM    9  C   UNL     1      -8.575   6.193  69.529  1.00  0.00    -0.127 C  
ENDBRANCH   5   7
ENDBRANCH   3   5
BRANCH   3  10
HETATM   10  O   UNL     1      -9.336   9.209  70.830  1.00  0.00    -0.237 OA 
BRANCH  10  11
HETATM   11  C   UNL     1      -9.976  10.077  69.976  1.00  0.00    -0.222 A  
HETATM   12  C   UNL     1     -11.341  10.353  70.049  1.00  0.00    -0.384 A  
HETATM   13  C   UNL     1     -11.978  11.103  69.056  1.00  0.00    -0.389 A  
HETATM   14  C   UNL     1     -11.230  11.664  68.028  1.00  0.00    -0.263 A  
HETATM   15  C   UNL     1      -9.855  11.477  67.983  1.00  0.00    -0.192 A  
HETATM   16 CL   UNL     1     -12.016  12.597  66.817  1.00  0.00    -0.429 Cl 
HETATM   17  C   UNL     1      -9.229  10.672  68.948  1.00  0.00    -0.183 A  
HETATM   18 CL   UNL     1      -7.519  10.467  68.846  1.00  0.00    -0.095 Cl 
ENDBRANCH  10  11
ENDBRANCH   3  10
ENDBRANCH   2   3
TORSDOF 5
ENDMDL
MODEL      127
REMARK 921   NORMALIZED FREE ENERGY PREDICTED BY IDOCK:   -3.35 KCAL/MOL
REMARK 922        TOTAL FREE ENERGY PREDICTED BY IDOCK:   -4.75 KCAL/MOL
REMARK 923 INTER-LIGAND FREE ENERGY PREDICTED BY IDOCK:   -4.87 KCAL/MOL
REMARK 924 INTRA-LIGAND FREE ENERGY PREDICTED BY IDOCK:    0.12 KCAL/MOL
REMARK 927      BINDING AFFINITY PREDICTED BY RF-SCORE:    0.00 PKD
ROOT
HETATM    1  C   UNL     1     -10.333   8.973  69.798  1.00  0.00    -0.211 C  
HETATM    2  O   UNL     1     -10.630   9.660  68.596  1.00  0.00    -0.210 OA 
ENDROOT
BRANCH   2   3
HETATM    3  P   UNL     1     -11.413  11.202  68.639  1.00  0.00    -0.322 P  
HETATM    4  S   UNL     1     -12.282  10.778  70.411  1.00  0.00    -0.375 S  
BRANCH   3   5
HETATM    5  N   UNL     1      -9.869  11.869  68.936  1.00  0.00    -0.414 NA 
HETATM    6  H   UNL     1      -9.675  12.224  69.872  1.00  0.00     0.000 HD 
BRANCH   5   7
HETATM    7  C   UNL     1      -8.805  11.964  67.931  1.00  0.00    -0.172 C  
HETATM    8  C   UNL     1      -7.583  11.151  68.365  1.00  0.00    -0.110 C  
HETATM    9  C   UNL     1      -9.250  11.494  66.543  1.00  0.00    -0.203 C  
ENDBRANCH   5   7
ENDBRANCH   3   5
BRANCH   3  10
HETATM   10  O   UNL     1     -12.196  12.744  68.681  1.00  0.00    -0.189 OA 
BRANCH  10  11
HETATM   11  C   UNL     1     -11.589  13.873  68.181  1.00  0.00    -0.335 A  
HETATM   12  C   UNL     1     -10.952  14.817  68.986  1.00  0.00    -0.257 A  
HETATM   13  C   UNL     1     -10.503  16.030  68.456  1.00  0.00    -0.258 A  
HETATM   14  C   UNL     1     -10.607  16.267  67.090  1.00  0.00    -0.291 A  
HETATM   15  C   UNL     1     -11.157  15.304  66.255  1.00  0.00    -0.273 A  
HETATM   16 CL   UNL     1     -10.041  17.754  66.442  1.00  0.00    -0.344 Cl 
HETATM   17  C   UNL     1     -11.661  14.114  66.802  1.00  0.00    -0.410 A  
HETATM   18 CL   UNL     1     -12.340  12.951  65.722  1.00  0.00    -0.494 Cl 
ENDBRANCH  10  11
ENDBRANCH   3  10
ENDBRANCH   2   3
TORSDOF 5
ENDMDL
MODEL      128
REMARK 921   NORMALIZED FREE ENERGY PREDICTED BY IDOCK:   -3.33 KCAL/MOL
REMARK 922        TOTAL FREE ENERGY PREDICTED BY IDOCK:   -4.73 KCAL/MOL
REMARK 923 INTER-LIGAND FREE ENERGY PREDICTED BY IDOCK:   -4.37 KCAL/MOL
REMARK 924 INTRA-LIGAND FREE ENERGY PREDICTED BY IDOCK:   -0.35 KCAL/MOL
REMARK 927      BINDING AFFINITY PREDICTED BY RF-SCORE:    0.00 PKD
ROOT
HETATM    1  C   UNL     1     -12.064  14.786  69.768  1.00  0.00    -0.319 C  
HETATM    2  O   UNL     1     -12.385  14.460  68.428  1.00  0.00    -0.203 OA 
ENDROOT
BRANCH   2   3
HETATM    3  P   UNL     1     -11.147  13.967  67.325  1.00  0.00    -0.324 P  
HETATM    4  S   UNL     1     -12.437  13.990  65.773  1.00  0.00    -0.459 S  
BRANCH   3   5
HETATM    5  N   UNL     1     -10.492  15.534  67.513  1.00  0.00    -0.276 NA 
HETATM    6  H   UNL     1     -11.143  16.315  67.596  1.00  0.00     0.000 HD 
BRANCH   5   7
HETATM    7  C   UNL     1      -9.057  15.827  67.563  1.00  0.00    -0.195 C  
HETATM    8  C   UNL     1      -8.642  16.684  66.364  1.00  0.00    -0.345 C  
HETATM    9  C   UNL     1      -8.636  16.536  68.854  1.00  0.00    -0.241 C  
ENDBRANCH   5   7
ENDBRANCH   3   5
BRANCH   3  10
HETATM   10  O   UNL     1      -9.909  13.474  66.223  1.00  0.00    -0.288 OA 
BRANCH  10  11
HETATM   11  C   UNL     1      -9.558  12.151  66.080  1.00  0.00    -0.240 A  
HETATM   12  C   UNL     1      -9.996  11.355  65.023  1.00  0.00    -0.312 A  
HETATM   13  C   UNL     1      -9.759   9.977  65.011  1.00  0.00    -0.386 A  
HETATM   14  C   UNL     1      -8.995   9.401  66.019  1.00  0.00    -0.168 A  
HETATM   15  C   UNL     1      -8.472  10.188  67.035  1.00  0.00    -0.129 A  
HETATM   16 CL   UNL     1      -8.694   7.709  65.992  1.00  0.00    -0.169 Cl 
HETATM   17  C   UNL     1      -8.765  11.560  67.075  1.00  0.00    -0.169 A  
HETATM   18 CL   UNL     1      -8.096  12.494  68.362  1.00  0.00    -0.152 Cl 
ENDBRANCH  10  11
ENDBRANCH   3  10
ENDBRANCH   2   3
TORSDOF 5
ENDMDL
MODEL      129
REMARK 921   NORMALIZED FREE ENERGY PREDICTED BY IDOCK:   -3.32 KCAL/MOL
REMARK 922        TOTAL FREE ENERGY PREDICTED BY IDOCK:   -4.71 KCAL/MOL
REMARK 923 INTER-LIGAND FREE ENERGY PREDICTED BY IDOCK:   -4.63 KCAL/MOL
REMARK 924 INTRA-LIGAND FREE ENERGY PREDICTED BY IDOCK:   -0.08 KCAL/MOL
REMARK 927      BINDING AFFINITY PREDICTED BY RF-SCORE:    0.00 PKD
ROOT
HETATM    1  C   UNL     1      -8.536   8.404  64.741  1.00  0.00    -0.049 C  
HETATM    2  O   UNL     1      -9.493   9.418  64.993  1.00  0.00    -0.247 OA 
ENDROOT
BRANCH   2   3
HETATM    3  P   UNL     1      -9.357  10.423  66.393  1.00  0.00    -0.177 P  
HETATM    4  S   UNL     1      -7.494   9.745  66.773  1.00  0.00    -0.095 S  
BRANCH   3   5
HETATM    5  N   UNL     1      -9.247  11.744  65.315  1.00  0.00    -0.419 NA 
HETATM    6  H   UNL     1      -8.326  12.147  65.148  1.00  0.00     0.000 HD 
BRANCH   5   7
HETATM    7  C   UNL     1     -10.392  12.334  64.614  1.00  0.00    -0.301 C  
HETATM    8  C   UNL     1     -10.464  11.817  63.175  1.00  0.00    -0.359 C  
HETATM    9  C   UNL     1     -11.727  12.056  65.312  1.00  0.00    -0.312 C  
ENDBRANCH   5   7
ENDBRANCH   3   5
BRANCH   3  10
HETATM   10  O   UNL     1      -9.222  11.429  67.795  1.00  0.00    -0.152 OA 
BRANCH  10  11
HETATM   11  C   UNL     1     -10.268  11.580  68.675  1.00  0.00    -0.208 A  
HETATM   12  C   UNL     1     -11.029  12.745  68.765  1.00  0.00    -0.289 A  
HETATM   13  C   UNL     1     -11.965  12.917  69.789  1.00  0.00    -0.365 A  
HETATM   14  C   UNL     1     -12.213  11.879  70.679  1.00  0.00    -0.331 A  
HETATM   15  C   UNL     1     -11.532  10.676  70.554  1.00  0.00    -0.407 A  
HETATM   16 CL   UNL     1     -13.376  12.091  71.927  1.00  0.00    -0.508 Cl 
HETATM   17  C   UNL     1     -10.550  10.530  69.562  1.00  0.00    -0.246 A  
HETATM   18 CL   UNL     1      -9.728   9.017  69.453  1.00  0.00    -0.166 Cl 
ENDBRANCH  10  11
ENDBRANCH   3  10
ENDBRANCH   2   3
TORSDOF 5
ENDMDL
MODEL      130
REMARK 921   NORMALIZED FREE ENERGY PREDICTED BY IDOCK:   -3.32 KCAL/MOL
REMARK 922        TOTAL FREE ENERGY PREDICTED BY IDOCK:   -4.71 KCAL/MOL
REMARK 923 INTER-LIGAND FREE ENERGY PREDICTED BY IDOCK:   -4.55 KCAL/MOL
REMARK 924 INTRA-LIGAND FREE ENERGY PREDICTED BY IDOCK:   -0.17 KCAL/MOL
REMARK 927      BINDING AFFINITY PREDICTED BY RF-SCORE:    0.00 PKD
ROOT
HETATM    1  C   UNL     1     -12.408  12.655  63.702  1.00  0.00    -0.492 C  
HETATM    2  O   UNL     1     -11.730  11.722  64.525  1.00  0.00    -0.282 OA 
ENDROOT
BRANCH   2   3
HETATM    3  P   UNL     1     -10.653  12.266  65.763  1.00  0.00    -0.275 P  
HETATM    4  S   UNL     1     -10.894  10.556  66.808  1.00  0.00    -0.079 S  
BRANCH   3   5
HETATM    5  N   UNL     1      -9.394  12.041  64.631  1.00  0.00    -0.417 NA 
HETATM    6  H   UNL     1      -8.815  12.847  64.395  1.00  0.00     0.000 HD 
BRANCH   5   7
HETATM    7  C   UNL     1      -9.091  10.763  63.979  1.00  0.00    -0.197 C  
HETATM    8  C   UNL     1      -9.034  10.938  62.459  1.00  0.00    -0.360 C  
HETATM    9  C   UNL     1      -7.776  10.143  64.461  1.00  0.00    -0.138 C  
ENDBRANCH   5   7
ENDBRANCH   3   5
BRANCH   3  10
HETATM   10  O   UNL     1      -9.576  12.812  67.002  1.00  0.00    -0.216 OA 
BRANCH  10  11
HETATM   11  C   UNL     1     -10.021  13.574  68.058  1.00  0.00    -0.248 A  
HETATM   12  C   UNL     1     -10.888  13.090  69.037  1.00  0.00    -0.197 A  
HETATM   13  C   UNL     1     -11.449  13.946  69.989  1.00  0.00    -0.208 A  
HETATM   14  C   UNL     1     -11.070  15.283  70.025  1.00  0.00    -0.287 A  
HETATM   15  C   UNL     1     -10.139  15.768  69.115  1.00  0.00    -0.238 A  
HETATM   16 CL   UNL     1     -11.752  16.328  71.207  1.00  0.00    -0.460 Cl 
HETATM   17  C   UNL     1      -9.626  14.918  68.123  1.00  0.00    -0.210 A  
HETATM   18 CL   UNL     1      -8.477  15.571  67.014  1.00  0.00    -0.242 Cl 
ENDBRANCH  10  11
ENDBRANCH   3  10
ENDBRANCH   2   3
TORSDOF 5
ENDMDL
MODEL      131
REMARK 921   NORMALIZED FREE ENERGY PREDICTED BY IDOCK:   -3.32 KCAL/MOL
REMARK 922        TOTAL FREE ENERGY PREDICTED BY IDOCK:   -4.71 KCAL/MOL
REMARK 923 INTER-LIGAND FREE ENERGY PREDICTED BY IDOCK:   -4.30 KCAL/MOL
REMARK 924 INTRA-LIGAND FREE ENERGY PREDICTED BY IDOCK:   -0.40 KCAL/MOL
REMARK 927      BINDING AFFINITY PREDICTED BY RF-SCORE:    0.00 PKD
ROOT
HETATM    1  C   UNL     1     -10.964  12.194  65.301  1.00  0.00    -0.304 C  
HETATM    2  O   UNL     1      -9.865  11.458  65.807  1.00  0.00    -0.214 OA 
ENDROOT
BRANCH   2   3
HETATM    3  P   UNL     1      -9.728  11.140  67.501  1.00  0.00    -0.180 P  
HETATM    4  S   UNL     1      -9.914   9.152  67.204  1.00  0.00    -0.239 S  
BRANCH   3   5
HETATM    5  N   UNL     1      -8.080  11.562  67.349  1.00  0.00    -0.139 NA 
HETATM    6  H   UNL     1      -7.852  12.543  67.186  1.00  0.00     0.000 HD 
BRANCH   5   7
HETATM    7  C   UNL     1      -6.972  10.605  67.437  1.00  0.00    -0.082 C  
HETATM    8  C   UNL     1      -6.169  10.594  66.134  1.00  0.00    -0.125 C  
HETATM    9  C   UNL     1      -6.025  10.893  68.606  1.00  0.00    -0.043 C  
ENDBRANCH   5   7
ENDBRANCH   3   5
BRANCH   3  10
HETATM   10  O   UNL     1      -9.592  10.823  69.197  1.00  0.00    -0.204 OA 
BRANCH  10  11
HETATM   11  C   UNL     1     -10.664  10.371  69.933  1.00  0.00    -0.279 A  
HETATM   12  C   UNL     1     -11.951  10.891  69.805  1.00  0.00    -0.423 A  
HETATM   13  C   UNL     1     -12.968  10.524  70.692  1.00  0.00    -0.362 A  
HETATM   14  C   UNL     1     -12.723   9.558  71.660  1.00  0.00    -0.388 A  
HETATM   15  C   UNL     1     -11.473   8.961  71.749  1.00  0.00    -0.423 A  
HETATM   16 CL   UNL     1     -13.981   9.100  72.738  1.00  0.00    -0.377 Cl 
HETATM   17  C   UNL     1     -10.439   9.377  70.896  1.00  0.00    -0.310 A  
HETATM   18 CL   UNL     1      -8.903   8.607  71.051  1.00  0.00    -0.209 Cl 
ENDBRANCH  10  11
ENDBRANCH   3  10
ENDBRANCH   2   3
TORSDOF 5
ENDMDL
MODEL      132
REMARK 921   NORMALIZED FREE ENERGY PREDICTED BY IDOCK:   -3.32 KCAL/MOL
REMARK 922        TOTAL FREE ENERGY PREDICTED BY IDOCK:   -4.71 KCAL/MOL
REMARK 923 INTER-LIGAND FREE ENERGY PREDICTED BY IDOCK:   -4.46 KCAL/MOL
REMARK 924 INTRA-LIGAND FREE ENERGY PREDICTED BY IDOCK:   -0.25 KCAL/MOL
REMARK 927      BINDING AFFINITY PREDICTED BY RF-SCORE:    0.00 PKD
ROOT
HETATM    1  C   UNL     1      -7.181  10.336  68.285  1.00  0.00    -0.083 C  
HETATM    2  O   UNL     1      -7.592  11.598  68.780  1.00  0.00    -0.128 OA 
ENDROOT
BRANCH   2   3
HETATM    3  P   UNL     1      -8.740  12.550  67.905  1.00  0.00    -0.197 P  
HETATM    4  S   UNL     1      -8.771  11.224  66.383  1.00  0.00    -0.179 S  
BRANCH   3   5
HETATM    5  N   UNL     1      -9.887  12.065  69.074  1.00  0.00    -0.410 NA 
HETATM    6  H   UNL     1     -10.061  12.692  69.860  1.00  0.00     0.000 HD 
BRANCH   5   7
HETATM    7  C   UNL     1     -10.637  10.807  69.021  1.00  0.00    -0.219 C  
HETATM    8  C   UNL     1     -11.151  10.429  70.412  1.00  0.00    -0.371 C  
HETATM    9  C   UNL     1     -11.820  10.857  68.048  1.00  0.00    -0.070 C  
ENDBRANCH   5   7
ENDBRANCH   3   5
BRANCH   3  10
HETATM   10  O   UNL     1      -9.888  13.504  67.030  1.00  0.00    -0.239 OA 
BRANCH  10  11
HETATM   11  C   UNL     1      -9.847  14.880  67.054  1.00  0.00    -0.237 A  
HETATM   12  C   UNL     1      -8.965  15.631  66.277  1.00  0.00    -0.377 A  
HETATM   13  C   UNL     1      -8.840  17.011  66.462  1.00  0.00    -0.295 A  
HETATM   14  C   UNL     1      -9.669  17.665  67.365  1.00  0.00    -0.283 A  
HETATM   15  C   UNL     1     -10.616  16.950  68.085  1.00  0.00    -0.360 A  
HETATM   16 CL   UNL     1      -9.520  19.364  67.577  1.00  0.00    -0.373 Cl 
HETATM   17  C   UNL     1     -10.696  15.557  67.941  1.00  0.00    -0.294 A  
HETATM   18 CL   UNL     1     -11.887  14.714  68.863  1.00  0.00    -0.348 Cl 
ENDBRANCH  10  11
ENDBRANCH   3  10
ENDBRANCH   2   3
TORSDOF 5
ENDMDL
MODEL      133
REMARK 921   NORMALIZED FREE ENERGY PREDICTED BY IDOCK:   -3.31 KCAL/MOL
REMARK 922        TOTAL FREE ENERGY PREDICTED BY IDOCK:   -4.69 KCAL/MOL
REMARK 923 INTER-LIGAND FREE ENERGY PREDICTED BY IDOCK:   -4.26 KCAL/MOL
REMARK 924 INTRA-LIGAND FREE ENERGY PREDICTED BY IDOCK:   -0.44 KCAL/MOL
REMARK 927      BINDING AFFINITY PREDICTED BY RF-SCORE:    0.00 PKD
ROOT
HETATM    1  C   UNL     1     -10.588   7.660  66.983  1.00  0.00    -0.336 C  
HETATM    2  O   UNL     1     -10.106   8.285  68.159  1.00  0.00    -0.185 OA 
ENDROOT
BRANCH   2   3
HETATM    3  P   UNL     1      -9.953  10.006  68.238  1.00  0.00    -0.167 P  
HETATM    4  S   UNL     1     -10.973  10.077  69.979  1.00  0.00    -0.319 S  
BRANCH   3   5
HETATM    5  N   UNL     1      -8.301   9.746  68.585  1.00  0.00    -0.109 NA 
HETATM    6  H   UNL     1      -7.758   9.188  67.926  1.00  0.00     0.000 HD 
BRANCH   5   7
HETATM    7  C   UNL     1      -7.613  10.274  69.767  1.00  0.00    -0.162 C  
HETATM    8  C   UNL     1      -7.134   9.131  70.665  1.00  0.00    -0.099 C  
HETATM    9  C   UNL     1      -6.419  11.167  69.415  1.00  0.00    -0.100 C  
ENDBRANCH   5   7
ENDBRANCH   3   5
BRANCH   3  10
HETATM   10  O   UNL     1      -9.801  11.727  68.316  1.00  0.00    -0.187 OA 
BRANCH  10  11
HETATM   11  C   UNL     1     -10.441  12.548  67.416  1.00  0.00    -0.219 A  
HETATM   12  C   UNL     1     -11.771  12.373  67.035  1.00  0.00    -0.423 A  
HETATM   13  C   UNL     1     -12.326  13.120  65.992  1.00  0.00    -0.426 A  
HETATM   14  C   UNL     1     -11.575  14.118  65.383  1.00  0.00    -0.334 A  
HETATM   15  C   UNL     1     -10.277  14.371  65.806  1.00  0.00    -0.355 A  
HETATM   16 CL   UNL     1     -12.267  15.044  64.110  1.00  0.00    -0.381 Cl 
HETATM   17  C   UNL     1      -9.705  13.577  66.811  1.00  0.00    -0.271 A  
HETATM   18 CL   UNL     1      -8.086  13.928  67.297  1.00  0.00    -0.185 Cl 
ENDBRANCH  10  11
ENDBRANCH   3  10
ENDBRANCH   2   3
TORSDOF 5
ENDMDL
MODEL      134
REMARK 921   NORMALIZED FREE ENERGY PREDICTED BY IDOCK:   -3.30 KCAL/MOL
REMARK 922        TOTAL FREE ENERGY PREDICTED BY IDOCK:   -4.69 KCAL/MOL
REMARK 923 INTER-LIGAND FREE ENERGY PREDICTED BY IDOCK:   -4.32 KCAL/MOL
REMARK 924 INTRA-LIGAND FREE ENERGY PREDICTED BY IDOCK:   -0.37 KCAL/MOL
REMARK 927      BINDING AFFINITY PREDICTED BY RF-SCORE:    0.00 PKD
ROOT
HETATM    1  C   UNL     1      -7.287  12.670  66.974  1.00  0.00     0.055 C  
HETATM    2  O   UNL     1      -8.344  11.765  66.709  1.00  0.00    -0.173 OA 
ENDROOT
BRANCH   2   3
HETATM    3  P   UNL     1      -9.972  12.173  67.126  1.00  0.00    -0.203 P  
HETATM    4  S   UNL     1     -10.124  13.428  65.553  1.00  0.00    -0.229 S  
BRANCH   3   5
HETATM    5  N   UNL     1     -10.395  10.600  66.611  1.00  0.00    -0.235 NA 
HETATM    6  H   UNL     1     -11.267  10.202  66.961  1.00  0.00     0.000 HD 
BRANCH   5   7
HETATM    7  C   UNL     1      -9.587   9.786  65.698  1.00  0.00    -0.263 C  
HETATM    8  C   UNL     1      -9.627   8.313  66.114  1.00  0.00    -0.217 C  
HETATM    9  C   UNL     1     -10.032   9.906  64.237  1.00  0.00     0.171 C  
ENDBRANCH   5   7
ENDBRANCH   3   5
BRANCH   3  10
HETATM   10  O   UNL     1     -11.601  12.581  67.544  1.00  0.00    -0.319 OA 
BRANCH  10  11
HETATM   11  C   UNL     1     -11.885  13.416  68.600  1.00  0.00    -0.362 A  
HETATM   12  C   UNL     1     -11.934  14.805  68.484  1.00  0.00    -0.284 A  
HETATM   13  C   UNL     1     -12.053  15.619  69.614  1.00  0.00    -0.329 A  
HETATM   14  C   UNL     1     -12.219  15.041  70.866  1.00  0.00    -0.329 A  
HETATM   15  C   UNL     1     -12.263  13.659  70.996  1.00  0.00    -0.374 A  
HETATM   16 CL   UNL     1     -12.380  16.046  72.251  1.00  0.00    -0.547 Cl 
HETATM   17  C   UNL     1     -12.082  12.847  69.867  1.00  0.00    -0.265 A  
HETATM   18 CL   UNL     1     -12.139  11.136  70.082  1.00  0.00    -0.413 Cl 
ENDBRANCH  10  11
ENDBRANCH   3  10
ENDBRANCH   2   3
TORSDOF 5
ENDMDL
MODEL      135
REMARK 921   NORMALIZED FREE ENERGY PREDICTED BY IDOCK:   -3.30 KCAL/MOL
REMARK 922        TOTAL FREE ENERGY PREDICTED BY IDOCK:   -4.68 KCAL/MOL
REMARK 923 INTER-LIGAND FREE ENERGY PREDICTED BY IDOCK:   -4.21 KCAL/MOL
REMARK 924 INTRA-LIGAND FREE ENERGY PREDICTED BY IDOCK:   -0.48 KCAL/MOL
REMARK 927      BINDING AFFINITY PREDICTED BY RF-SCORE:    0.00 PKD
ROOT
HETATM    1  C   UNL     1     -10.924  11.355  63.679  1.00  0.00    -0.363 C  
HETATM    2  O   UNL     1     -10.317  10.889  64.871  1.00  0.00    -0.295 OA 
ENDROOT
BRANCH   2   3
HETATM    3  P   UNL     1     -10.376  11.840  66.314  1.00  0.00    -0.243 P  
HETATM    4  S   UNL     1     -11.924  12.926  65.606  1.00  0.00    -0.459 S  
BRANCH   3   5
HETATM    5  N   UNL     1     -10.995  10.449  67.089  1.00  0.00    -0.241 NA 
HETATM    6  H   UNL     1     -12.007  10.318  67.095  1.00  0.00     0.000 HD 
BRANCH   5   7
HETATM    7  C   UNL     1     -10.167   9.433  67.744  1.00  0.00    -0.222 C  
HETATM    8  C   UNL     1     -10.448   8.048  67.154  1.00  0.00    -0.408 C  
HETATM    9  C   UNL     1      -8.667   9.726  67.638  1.00  0.00    -0.125 C  
ENDBRANCH   5   7
ENDBRANCH   3   5
BRANCH   3  10
HETATM   10  O   UNL     1     -10.435  12.792  67.758  1.00  0.00    -0.216 OA 
BRANCH  10  11
HETATM   11  C   UNL     1      -9.401  13.628  68.110  1.00  0.00    -0.212 A  
HETATM   12  C   UNL     1      -8.074  13.209  68.195  1.00  0.00    -0.155 A  
HETATM   13  C   UNL     1      -7.086  14.045  68.723  1.00  0.00    -0.108 A  
HETATM   14  C   UNL     1      -7.406  15.348  69.085  1.00  0.00    -0.175 A  
HETATM   15  C   UNL     1      -8.703  15.817  68.926  1.00  0.00    -0.217 A  
HETATM   16 CL   UNL     1      -6.185  16.377  69.721  1.00  0.00    -0.214 Cl 
HETATM   17  C   UNL     1      -9.704  14.954  68.453  1.00  0.00    -0.209 A  
HETATM   18 CL   UNL     1     -11.301  15.584  68.279  1.00  0.00    -0.344 Cl 
ENDBRANCH  10  11
ENDBRANCH   3  10
ENDBRANCH   2   3
TORSDOF 5
ENDMDL
MODEL      136
REMARK 921   NORMALIZED FREE ENERGY PREDICTED BY IDOCK:   -3.29 KCAL/MOL
REMARK 922        TOTAL FREE ENERGY PREDICTED BY IDOCK:   -4.68 KCAL/MOL
REMARK 923 INTER-LIGAND FREE ENERGY PREDICTED BY IDOCK:   -5.05 KCAL/MOL
REMARK 924 INTRA-LIGAND FREE ENERGY PREDICTED BY IDOCK:    0.37 KCAL/MOL
REMARK 927      BINDING AFFINITY PREDICTED BY RF-SCORE:    0.00 PKD
ROOT
HETATM    1  C   UNL     1     -11.468  10.733  68.282  1.00  0.00    -0.280 C  
HETATM    2  O   UNL     1     -10.489  11.582  68.853  1.00  0.00    -0.208 OA 
ENDROOT
BRANCH   2   3
HETATM    3  P   UNL     1      -9.646  12.730  67.873  1.00  0.00    -0.220 P  
HETATM    4  S   UNL     1     -10.990  12.532  66.380  1.00  0.00    -0.285 S  
BRANCH   3   5
HETATM    5  N   UNL     1     -10.210  13.924  68.959  1.00  0.00    -0.422 NA 
HETATM    6  H   UNL     1      -9.515  14.464  69.474  1.00  0.00     0.000 HD 
BRANCH   5   7
HETATM    7  C   UNL     1     -11.626  14.220  69.196  1.00  0.00    -0.305 C  
HETATM    8  C   UNL     1     -12.054  13.722  70.578  1.00  0.00    -0.416 C  
HETATM    9  C   UNL     1     -11.951  15.713  69.079  1.00  0.00    -0.323 C  
ENDBRANCH   5   7
ENDBRANCH   3   5
BRANCH   3  10
HETATM   10  O   UNL     1      -8.802  13.879  66.893  1.00  0.00    -0.231 OA 
BRANCH  10  11
HETATM   11  C   UNL     1      -9.274  15.160  66.717  1.00  0.00    -0.254 A  
HETATM   12  C   UNL     1     -10.255  15.490  65.783  1.00  0.00    -0.390 A  
HETATM   13  C   UNL     1     -10.578  16.824  65.518  1.00  0.00    -0.243 A  
HETATM   14  C   UNL     1      -9.983  17.838  66.259  1.00  0.00    -0.318 A  
HETATM   15  C   UNL     1      -9.068  17.528  67.256  1.00  0.00    -0.240 A  
HETATM   16 CL   UNL     1     -10.394  19.476  65.939  1.00  0.00    -0.567 Cl 
HETATM   17  C   UNL     1      -8.703  16.191  67.476  1.00  0.00    -0.185 A  
HETATM   18 CL   UNL     1      -7.557  15.860  68.723  1.00  0.00    -0.165 Cl 
ENDBRANCH  10  11
ENDBRANCH   3  10
ENDBRANCH   2   3
TORSDOF 5
ENDMDL
MODEL      137
REMARK 921   NORMALIZED FREE ENERGY PREDICTED BY IDOCK:   -3.28 KCAL/MOL
REMARK 922        TOTAL FREE ENERGY PREDICTED BY IDOCK:   -4.66 KCAL/MOL
REMARK 923 INTER-LIGAND FREE ENERGY PREDICTED BY IDOCK:   -4.75 KCAL/MOL
REMARK 924 INTRA-LIGAND FREE ENERGY PREDICTED BY IDOCK:    0.09 KCAL/MOL
REMARK 927      BINDING AFFINITY PREDICTED BY RF-SCORE:    0.00 PKD
ROOT
HETATM    1  C   UNL     1     -11.126  16.762  65.233  1.00  0.00     0.007 C  
HETATM    2  O   UNL     1     -11.613  15.443  65.399  1.00  0.00    -0.186 OA 
ENDROOT
BRANCH   2   3
HETATM    3  P   UNL     1     -10.941  14.406  66.608  1.00  0.00    -0.332 P  
HETATM    4  S   UNL     1     -10.232  13.134  65.210  1.00  0.00    -0.258 S  
BRANCH   3   5
HETATM    5  N   UNL     1      -9.777  15.630  66.871  1.00  0.00    -0.225 NA 
HETATM    6  H   UNL     1     -10.103  16.528  67.229  1.00  0.00     0.000 HD 
BRANCH   5   7
HETATM    7  C   UNL     1      -8.342  15.471  66.617  1.00  0.00    -0.251 C  
HETATM    8  C   UNL     1      -7.697  16.827  66.320  1.00  0.00    -0.310 C  
HETATM    9  C   UNL     1      -7.599  14.807  67.780  1.00  0.00    -0.174 C  
ENDBRANCH   5   7
ENDBRANCH   3   5
BRANCH   3  10
HETATM   10  O   UNL     1     -10.269  13.369  67.819  1.00  0.00    -0.227 OA 
BRANCH  10  11
HETATM   11  C   UNL     1     -11.063  12.745  68.754  1.00  0.00    -0.260 A  
HETATM   12  C   UNL     1     -11.722  13.429  69.775  1.00  0.00    -0.355 A  
HETATM   13  C   UNL     1     -12.374  12.739  70.801  1.00  0.00    -0.375 A  
HETATM   14  C   UNL     1     -12.450  11.352  70.759  1.00  0.00    -0.365 A  
HETATM   15  C   UNL     1     -11.878  10.653  69.704  1.00  0.00    -0.358 A  
HETATM   16 CL   UNL     1     -13.265  10.508  72.015  1.00  0.00    -0.554 Cl 
HETATM   17  C   UNL     1     -11.172  11.348  68.710  1.00  0.00    -0.247 A  
HETATM   18 CL   UNL     1     -10.474  10.433  67.424  1.00  0.00    -0.278 Cl 
ENDBRANCH  10  11
ENDBRANCH   3  10
ENDBRANCH   2   3
TORSDOF 5
ENDMDL
MODEL      138
REMARK 921   NORMALIZED FREE ENERGY PREDICTED BY IDOCK:   -3.27 KCAL/MOL
REMARK 922        TOTAL FREE ENERGY PREDICTED BY IDOCK:   -4.65 KCAL/MOL
REMARK 923 INTER-LIGAND FREE ENERGY PREDICTED BY IDOCK:   -4.24 KCAL/MOL
REMARK 924 INTRA-LIGAND FREE ENERGY PREDICTED BY IDOCK:   -0.41 KCAL/MOL
REMARK 927      BINDING AFFINITY PREDICTED BY RF-SCORE:    0.00 PKD
ROOT
HETATM    1  C   UNL     1     -12.311  13.097  63.386  1.00  0.00    -0.362 C  
HETATM    2  O   UNL     1     -11.474  13.294  64.512  1.00  0.00    -0.337 OA 
ENDROOT
BRANCH   2   3
HETATM    3  P   UNL     1     -10.411  12.038  65.043  1.00  0.00    -0.297 P  
HETATM    4  S   UNL     1      -9.882  11.600  63.145  1.00  0.00    -0.287 S  
BRANCH   3   5
HETATM    5  N   UNL     1      -9.390  13.281  65.620  1.00  0.00    -0.449 NA 
HETATM    6  H   UNL     1      -8.815  13.779  64.941  1.00  0.00     0.000 HD 
BRANCH   5   7
HETATM    7  C   UNL     1      -9.288  13.677  67.028  1.00  0.00    -0.248 C  
HETATM    8  C   UNL     1     -10.607  13.407  67.758  1.00  0.00    -0.252 C  
HETATM    9  C   UNL     1      -8.152  12.964  67.769  1.00  0.00    -0.166 C  
ENDBRANCH   5   7
ENDBRANCH   3   5
BRANCH   3  10
HETATM   10  O   UNL     1      -9.347  10.782  65.576  1.00  0.00    -0.188 OA 
BRANCH  10  11
HETATM   11  C   UNL     1      -9.769   9.801  66.443  1.00  0.00    -0.216 A  
HETATM   12  C   UNL     1     -10.645  10.043  67.501  1.00  0.00    -0.336 A  
HETATM   13  C   UNL     1     -10.909   9.058  68.458  1.00  0.00    -0.061 A  
HETATM   14  C   UNL     1     -10.367   7.788  68.308  1.00  0.00    -0.198 A  
HETATM   15  C   UNL     1      -9.563   7.497  67.214  1.00  0.00    -0.198 A  
HETATM   16 CL   UNL     1     -10.706   6.577  69.479  1.00  0.00    -0.288 Cl 
HETATM   17  C   UNL     1      -9.252   8.507  66.290  1.00  0.00    -0.207 A  
HETATM   18 CL   UNL     1      -8.245   8.096  64.951  1.00  0.00    -0.155 Cl 
ENDBRANCH  10  11
ENDBRANCH   3  10
ENDBRANCH   2   3
TORSDOF 5
ENDMDL
MODEL      139
REMARK 921   NORMALIZED FREE ENERGY PREDICTED BY IDOCK:   -3.27 KCAL/MOL
REMARK 922        TOTAL FREE ENERGY PREDICTED BY IDOCK:   -4.65 KCAL/MOL
REMARK 923 INTER-LIGAND FREE ENERGY PREDICTED BY IDOCK:   -4.21 KCAL/MOL
REMARK 924 INTRA-LIGAND FREE ENERGY PREDICTED BY IDOCK:   -0.44 KCAL/MOL
REMARK 927      BINDING AFFINITY PREDICTED BY RF-SCORE:    0.00 PKD
ROOT
HETATM    1  C   UNL     1     -11.732  13.289  69.615  1.00  0.00    -0.303 C  
HETATM    2  O   UNL     1     -10.782  12.255  69.435  1.00  0.00    -0.044 OA 
ENDROOT
BRANCH   2   3
HETATM    3  P   UNL     1     -11.149  10.635  69.915  1.00  0.00    -0.254 P  
HETATM    4  S   UNL     1     -12.559  11.274  71.210  1.00  0.00    -0.340 S  
BRANCH   3   5
HETATM    5  N   UNL     1     -11.868  10.445  68.377  1.00  0.00    -0.752 NA 
HETATM    6  H   UNL     1     -12.868  10.625  68.293  1.00  0.00     0.000 HD 
BRANCH   5   7
HETATM    7  C   UNL     1     -11.139  10.041  67.170  1.00  0.00     0.005 C  
HETATM    8  C   UNL     1     -10.974  11.230  66.220  1.00  0.00    -0.265 C  
HETATM    9  C   UNL     1      -9.759   9.450  67.476  1.00  0.00    -0.198 C  
ENDBRANCH   5   7
ENDBRANCH   3   5
BRANCH   3  10
HETATM   10  O   UNL     1     -11.516   9.013  70.395  1.00  0.00    -0.251 OA 
BRANCH  10  11
HETATM   11  C   UNL     1     -10.731   8.336  71.301  1.00  0.00    -0.227 A  
HETATM   12  C   UNL     1      -9.421   8.706  71.602  1.00  0.00    -0.339 A  
HETATM   13  C   UNL     1      -8.606   7.890  72.393  1.00  0.00    -0.198 A  
HETATM   14  C   UNL     1      -9.132   6.739  72.967  1.00  0.00    -0.127 A  
HETATM   15  C   UNL     1     -10.460   6.398  72.754  1.00  0.00    -0.238 A  
HETATM   16 CL   UNL     1      -8.130   5.748  73.950  1.00  0.00    -0.110 Cl 
HETATM   17  C   UNL     1     -11.256   7.187  71.909  1.00  0.00    -0.249 A  
HETATM   18 CL   UNL     1     -12.899   6.716  71.672  1.00  0.00    -0.322 Cl 
ENDBRANCH  10  11
ENDBRANCH   3  10
ENDBRANCH   2   3
TORSDOF 5
ENDMDL
MODEL      140
REMARK 921   NORMALIZED FREE ENERGY PREDICTED BY IDOCK:   -3.27 KCAL/MOL
REMARK 922        TOTAL FREE ENERGY PREDICTED BY IDOCK:   -4.65 KCAL/MOL
REMARK 923 INTER-LIGAND FREE ENERGY PREDICTED BY IDOCK:   -4.21 KCAL/MOL
REMARK 924 INTRA-LIGAND FREE ENERGY PREDICTED BY IDOCK:   -0.44 KCAL/MOL
REMARK 927      BINDING AFFINITY PREDICTED BY RF-SCORE:    0.00 PKD
ROOT
HETATM    1  C   UNL     1      -8.135  10.420  66.460  1.00  0.00    -0.122 C  
HETATM    2  O   UNL     1      -9.319   9.687  66.720  1.00  0.00    -0.144 OA 
ENDROOT
BRANCH   2   3
HETATM    3  P   UNL     1      -9.976   9.624  68.319  1.00  0.00    -0.169 P  
HETATM    4  S   UNL     1     -11.232  11.155  67.928  1.00  0.00    -0.309 S  
BRANCH   3   5
HETATM    5  N   UNL     1     -10.730   8.166  67.845  1.00  0.00    -0.456 NA 
HETATM    6  H   UNL     1     -11.741   8.174  67.712  1.00  0.00     0.000 HD 
BRANCH   5   7
HETATM    7  C   UNL     1     -10.017   6.905  67.618  1.00  0.00    -0.144 C  
HETATM    8  C   UNL     1      -9.586   6.284  68.949  1.00  0.00    -0.135 C  
HETATM    9  C   UNL     1     -10.847   5.882  66.836  1.00  0.00    -0.376 C  
ENDBRANCH   5   7
ENDBRANCH   3   5
BRANCH   3  10
HETATM   10  O   UNL     1     -10.632   9.559  69.918  1.00  0.00    -0.212 OA 
BRANCH  10  11
HETATM   11  C   UNL     1      -9.893   9.092  70.981  1.00  0.00    -0.296 A  
HETATM   12  C   UNL     1      -8.504   8.969  70.950  1.00  0.00    -0.253 A  
HETATM   13  C   UNL     1      -7.815   8.329  71.984  1.00  0.00    -0.168 A  
HETATM   14  C   UNL     1      -8.507   7.889  73.106  1.00  0.00    -0.186 A  
HETATM   15  C   UNL     1      -9.878   8.081  73.199  1.00  0.00    -0.332 A  
HETATM   16 CL   UNL     1      -7.652   7.116  74.381  1.00  0.00    -0.131 Cl 
HETATM   17  C   UNL     1     -10.574   8.669  72.131  1.00  0.00    -0.341 A  
HETATM   18 CL   UNL     1     -12.279   8.880  72.294  1.00  0.00    -0.433 Cl 
ENDBRANCH  10  11
ENDBRANCH   3  10
ENDBRANCH   2   3
TORSDOF 5
ENDMDL
MODEL      141
REMARK 921   NORMALIZED FREE ENERGY PREDICTED BY IDOCK:   -3.26 KCAL/MOL
REMARK 922        TOTAL FREE ENERGY PREDICTED BY IDOCK:   -4.63 KCAL/MOL
REMARK 923 INTER-LIGAND FREE ENERGY PREDICTED BY IDOCK:   -4.43 KCAL/MOL
REMARK 924 INTRA-LIGAND FREE ENERGY PREDICTED BY IDOCK:   -0.21 KCAL/MOL
REMARK 927      BINDING AFFINITY PREDICTED BY RF-SCORE:    0.00 PKD
ROOT
HETATM    1  C   UNL     1     -12.364  14.421  70.107  1.00  0.00    -0.348 C  
HETATM    2  O   UNL     1     -12.180  13.899  68.804  1.00  0.00    -0.348 OA 
ENDROOT
BRANCH   2   3
HETATM    3  P   UNL     1     -10.843  12.858  68.458  1.00  0.00    -0.258 P  
HETATM    4  S   UNL     1     -10.860  13.385  66.509  1.00  0.00    -0.283 S  
BRANCH   3   5
HETATM    5  N   UNL     1      -9.876  13.976  69.316  1.00  0.00    -0.407 NA 
HETATM    6  H   UNL     1      -9.950  13.986  70.333  1.00  0.00     0.000 HD 
BRANCH   5   7
HETATM    7  C   UNL     1      -8.949  14.920  68.684  1.00  0.00    -0.184 C  
HETATM    8  C   UNL     1      -9.384  16.362  68.956  1.00  0.00    -0.248 C  
HETATM    9  C   UNL     1      -7.501  14.737  69.150  1.00  0.00    -0.153 C  
ENDBRANCH   5   7
ENDBRANCH   3   5
BRANCH   3  10
HETATM   10  O   UNL     1      -9.505  11.817  68.112  1.00  0.00    -0.181 OA 
BRANCH  10  11
HETATM   11  C   UNL     1      -9.691  10.502  67.752  1.00  0.00    -0.160 A  
HETATM   12  C   UNL     1      -9.561  10.043  66.441  1.00  0.00    -0.248 A  
HETATM   13  C   UNL     1      -9.929   8.740  66.094  1.00  0.00    -0.244 A  
HETATM   14  C   UNL     1     -10.342   7.854  67.081  1.00  0.00    -0.328 A  
HETATM   15  C   UNL     1     -10.395   8.262  68.407  1.00  0.00    -0.237 A  
HETATM   16 CL   UNL     1     -10.779   6.248  66.651  1.00  0.00    -0.322 Cl 
HETATM   17  C   UNL     1     -10.084   9.589  68.741  1.00  0.00    -0.188 A  
HETATM   18 CL   UNL     1     -10.170  10.047  70.402  1.00  0.00    -0.289 Cl 
ENDBRANCH  10  11
ENDBRANCH   3  10
ENDBRANCH   2   3
TORSDOF 5
ENDMDL
MODEL      142
REMARK 921   NORMALIZED FREE ENERGY PREDICTED BY IDOCK:   -3.25 KCAL/MOL
REMARK 922        TOTAL FREE ENERGY PREDICTED BY IDOCK:   -4.62 KCAL/MOL
REMARK 923 INTER-LIGAND FREE ENERGY PREDICTED BY IDOCK:   -4.13 KCAL/MOL
REMARK 924 INTRA-LIGAND FREE ENERGY PREDICTED BY IDOCK:   -0.50 KCAL/MOL
REMARK 927      BINDING AFFINITY PREDICTED BY RF-SCORE:    0.00 PKD
ROOT
HETATM    1  C   UNL     1      -8.765  10.311  65.282  1.00  0.00    -0.172 C  
HETATM    2  O   UNL     1      -8.243  11.174  66.276  1.00  0.00    -0.168 OA 
ENDROOT
BRANCH   2   3
HETATM    3  P   UNL     1      -9.260  12.344  67.044  1.00  0.00    -0.216 P  
HETATM    4  S   UNL     1     -10.809  11.051  67.096  1.00  0.00    -0.280 S  
BRANCH   3   5
HETATM    5  N   UNL     1      -8.308  12.110  68.443  1.00  0.00    -0.211 NA 
HETATM    6  H   UNL     1      -8.589  11.377  69.093  1.00  0.00     0.000 HD 
BRANCH   5   7
HETATM    7  C   UNL     1      -7.113  12.896  68.767  1.00  0.00    -0.096 C  
HETATM    8  C   UNL     1      -5.911  11.976  68.990  1.00  0.00    -0.064 C  
HETATM    9  C   UNL     1      -6.763  13.924  67.687  1.00  0.00    -0.189 C  
ENDBRANCH   5   7
ENDBRANCH   3   5
BRANCH   3  10
HETATM   10  O   UNL     1     -10.277  13.514  67.811  1.00  0.00    -0.233 OA 
BRANCH  10  11
HETATM   11  C   UNL     1     -10.376  14.802  67.337  1.00  0.00    -0.242 A  
HETATM   12  C   UNL     1     -10.038  15.165  66.033  1.00  0.00    -0.323 A  
HETATM   13  C   UNL     1      -9.989  16.508  65.648  1.00  0.00    -0.234 A  
HETATM   14  C   UNL     1     -10.370  17.497  66.546  1.00  0.00    -0.325 A  
HETATM   15  C   UNL     1     -10.797  17.154  67.822  1.00  0.00    -0.270 A  
HETATM   16 CL   UNL     1     -10.321  19.146  66.063  1.00  0.00    -0.535 Cl 
HETATM   17  C   UNL     1     -10.786  15.809  68.223  1.00  0.00    -0.281 A  
HETATM   18 CL   UNL     1     -11.320  15.436  69.821  1.00  0.00    -0.285 Cl 
ENDBRANCH  10  11
ENDBRANCH   3  10
ENDBRANCH   2   3
TORSDOF 5
ENDMDL
MODEL      143
REMARK 921   NORMALIZED FREE ENERGY PREDICTED BY IDOCK:   -3.23 KCAL/MOL
REMARK 922        TOTAL FREE ENERGY PREDICTED BY IDOCK:   -4.60 KCAL/MOL
REMARK 923 INTER-LIGAND FREE ENERGY PREDICTED BY IDOCK:   -4.20 KCAL/MOL
REMARK 924 INTRA-LIGAND FREE ENERGY PREDICTED BY IDOCK:   -0.40 KCAL/MOL
REMARK 927      BINDING AFFINITY PREDICTED BY RF-SCORE:    0.00 PKD
ROOT
HETATM    1  C   UNL     1      -8.593   6.163  70.301  1.00  0.00    -0.140 C  
HETATM    2  O   UNL     1      -9.807   6.409  69.615  1.00  0.00    -0.157 OA 
ENDROOT
BRANCH   2   3
HETATM    3  P   UNL     1     -10.266   8.023  69.196  1.00  0.00    -0.213 P  
HETATM    4  S   UNL     1     -10.627   7.488  67.283  1.00  0.00    -0.307 S  
BRANCH   3   5
HETATM    5  N   UNL     1     -11.682   7.755  70.113  1.00  0.00    -0.474 NA 
HETATM    6  H   UNL     1     -12.407   7.164  69.708  1.00  0.00     0.000 HD 
BRANCH   5   7
HETATM    7  C   UNL     1     -11.921   8.320  71.445  1.00  0.00    -0.299 C  
HETATM    8  C   UNL     1     -10.595   8.669  72.125  1.00  0.00    -0.411 C  
HETATM    9  C   UNL     1     -12.810   9.567  71.414  1.00  0.00    -0.443 C  
ENDBRANCH   5   7
ENDBRANCH   3   5
BRANCH   3  10
HETATM   10  O   UNL     1     -10.724   9.638  68.777  1.00  0.00    -0.221 OA 
BRANCH  10  11
HETATM   11  C   UNL     1      -9.789  10.578  68.408  1.00  0.00    -0.161 A  
HETATM   12  C   UNL     1      -8.421  10.314  68.352  1.00  0.00    -0.124 A  
HETATM   13  C   UNL     1      -7.497  11.342  68.142  1.00  0.00    -0.091 A  
HETATM   14  C   UNL     1      -7.946  12.633  67.891  1.00  0.00    -0.156 A  
HETATM   15  C   UNL     1      -9.307  12.903  67.852  1.00  0.00    -0.208 A  
HETATM   16 CL   UNL     1      -6.806  13.890  67.618  1.00  0.00    -0.187 Cl 
HETATM   17  C   UNL     1     -10.228  11.880  68.125  1.00  0.00    -0.199 A  
HETATM   18 CL   UNL     1     -11.909  12.268  68.070  1.00  0.00    -0.407 Cl 
ENDBRANCH  10  11
ENDBRANCH   3  10
ENDBRANCH   2   3
TORSDOF 5
ENDMDL
MODEL      144
REMARK 921   NORMALIZED FREE ENERGY PREDICTED BY IDOCK:   -3.21 KCAL/MOL
REMARK 922        TOTAL FREE ENERGY PREDICTED BY IDOCK:   -4.57 KCAL/MOL
REMARK 923 INTER-LIGAND FREE ENERGY PREDICTED BY IDOCK:   -4.30 KCAL/MOL
REMARK 924 INTRA-LIGAND FREE ENERGY PREDICTED BY IDOCK:   -0.27 KCAL/MOL
REMARK 927      BINDING AFFINITY PREDICTED BY RF-SCORE:    0.00 PKD
ROOT
HETATM    1  C   UNL     1     -11.425  15.130  68.907  1.00  0.00    -0.320 C  
HETATM    2  O   UNL     1     -10.639  14.457  67.940  1.00  0.00    -0.237 OA 
ENDROOT
BRANCH   2   3
HETATM    3  P   UNL     1     -10.408  12.746  68.034  1.00  0.00    -0.238 P  
HETATM    4  S   UNL     1     -11.656  12.431  66.480  1.00  0.00    -0.375 S  
BRANCH   3   5
HETATM    5  N   UNL     1      -8.836  13.023  67.424  1.00  0.00    -0.193 NA 
HETATM    6  H   UNL     1      -8.721  13.078  66.412  1.00  0.00     0.000 HD 
BRANCH   5   7
HETATM    7  C   UNL     1      -7.644  13.187  68.261  1.00  0.00    -0.139 C  
HETATM    8  C   UNL     1      -6.463  12.413  67.670  1.00  0.00    -0.130 C  
HETATM    9  C   UNL     1      -7.239  14.654  68.444  1.00  0.00    -0.117 C  
ENDBRANCH   5   7
ENDBRANCH   3   5
BRANCH   3  10
HETATM   10  O   UNL     1     -10.176  11.034  68.130  1.00  0.00    -0.172 OA 
BRANCH  10  11
HETATM   11  C   UNL     1      -9.977  10.402  69.336  1.00  0.00    -0.218 A  
HETATM   12  C   UNL     1      -8.750   9.863  69.722  1.00  0.00    -0.229 A  
HETATM   13  C   UNL     1      -8.638   9.080  70.875  1.00  0.00    -0.263 A  
HETATM   14  C   UNL     1      -9.741   8.908  71.702  1.00  0.00    -0.309 A  
HETATM   15  C   UNL     1     -10.952   9.508  71.384  1.00  0.00    -0.415 A  
HETATM   16 CL   UNL     1      -9.594   7.955  73.125  1.00  0.00    -0.336 Cl 
HETATM   17  C   UNL     1     -11.075  10.243  70.194  1.00  0.00    -0.319 A  
HETATM   18 CL   UNL     1     -12.602  10.964  69.842  1.00  0.00    -0.292 Cl 
ENDBRANCH  10  11
ENDBRANCH   3  10
ENDBRANCH   2   3
TORSDOF 5
ENDMDL
MODEL      145
REMARK 921   NORMALIZED FREE ENERGY PREDICTED BY IDOCK:   -3.17 KCAL/MOL
REMARK 922        TOTAL FREE ENERGY PREDICTED BY IDOCK:   -4.52 KCAL/MOL
REMARK 923 INTER-LIGAND FREE ENERGY PREDICTED BY IDOCK:   -4.16 KCAL/MOL
REMARK 924 INTRA-LIGAND FREE ENERGY PREDICTED BY IDOCK:   -0.36 KCAL/MOL
REMARK 927      BINDING AFFINITY PREDICTED BY RF-SCORE:    0.00 PKD
ROOT
HETATM    1  C   UNL     1     -12.513  12.552  64.597  1.00  0.00    -0.463 C  
HETATM    2  O   UNL     1     -12.125  13.196  65.797  1.00  0.00    -0.402 OA 
ENDROOT
BRANCH   2   3
HETATM    3  P   UNL     1     -10.592  12.851  66.521  1.00  0.00    -0.266 P  
HETATM    4  S   UNL     1     -10.412  11.140  65.466  1.00  0.00    -0.233 S  
BRANCH   3   5
HETATM    5  N   UNL     1      -9.970  14.137  65.583  1.00  0.00    -0.432 NA 
HETATM    6  H   UNL     1      -9.313  13.908  64.838  1.00  0.00     0.000 HD 
BRANCH   5   7
HETATM    7  C   UNL     1     -10.322  15.547  65.781  1.00  0.00    -0.363 C  
HETATM    8  C   UNL     1      -9.059  16.411  65.839  1.00  0.00    -0.217 C  
HETATM    9  C   UNL     1     -11.250  16.090  64.690  1.00  0.00    -0.340 C  
ENDBRANCH   5   7
ENDBRANCH   3   5
BRANCH   3  10
HETATM   10  O   UNL     1      -9.059  12.507  67.245  1.00  0.00    -0.176 OA 
BRANCH  10  11
HETATM   11  C   UNL     1      -8.393  13.446  67.999  1.00  0.00    -0.165 A  
HETATM   12  C   UNL     1      -9.043  14.378  68.806  1.00  0.00    -0.133 A  
HETATM   13  C   UNL     1      -8.337  15.420  69.415  1.00  0.00    -0.250 A  
HETATM   14  C   UNL     1      -6.954  15.480  69.294  1.00  0.00    -0.171 A  
HETATM   15  C   UNL     1      -6.275  14.511  68.568  1.00  0.00    -0.089 A  
HETATM   16 CL   UNL     1      -6.090  16.755  70.057  1.00  0.00    -0.201 Cl 
HETATM   17  C   UNL     1      -6.994  13.503  67.908  1.00  0.00    -0.144 A  
HETATM   18 CL   UNL     1      -6.104  12.325  67.015  1.00  0.00    -0.117 Cl 
ENDBRANCH  10  11
ENDBRANCH   3  10
ENDBRANCH   2   3
TORSDOF 5
ENDMDL
MODEL      146
REMARK 921   NORMALIZED FREE ENERGY PREDICTED BY IDOCK:   -3.14 KCAL/MOL
REMARK 922        TOTAL FREE ENERGY PREDICTED BY IDOCK:   -4.48 KCAL/MOL
REMARK 923 INTER-LIGAND FREE ENERGY PREDICTED BY IDOCK:   -3.93 KCAL/MOL
REMARK 924 INTRA-LIGAND FREE ENERGY PREDICTED BY IDOCK:   -0.55 KCAL/MOL
REMARK 927      BINDING AFFINITY PREDICTED BY RF-SCORE:    0.00 PKD
ROOT
HETATM    1  C   UNL     1      -6.301   5.884  71.376  1.00  0.00    -0.044 C  
HETATM    2  O   UNL     1      -6.650   6.592  70.201  1.00  0.00    -0.042 OA 
ENDROOT
BRANCH   2   3
HETATM    3  P   UNL     1      -7.690   7.972  70.286  1.00  0.00    -0.090 P  
HETATM    4  S   UNL     1      -6.210   9.116  71.043  1.00  0.00    -0.073 S  
BRANCH   3   5
HETATM    5  N   UNL     1      -7.600   8.023  68.580  1.00  0.00    -0.098 NA 
HETATM    6  H   UNL     1      -6.675   8.062  68.153  1.00  0.00     0.000 HD 
BRANCH   5   7
HETATM    7  C   UNL     1      -8.766   8.014  67.692  1.00  0.00    -0.126 C  
HETATM    8  C   UNL     1      -8.326   7.950  66.228  1.00  0.00    -0.126 C  
HETATM    9  C   UNL     1      -9.725   6.853  67.977  1.00  0.00    -0.138 C  
ENDBRANCH   5   7
ENDBRANCH   3   5
BRANCH   3  10
HETATM   10  O   UNL     1      -8.731   9.351  70.371  1.00  0.00    -0.208 OA 
BRANCH  10  11
HETATM   11  C   UNL     1      -9.980   9.276  70.944  1.00  0.00    -0.297 A  
HETATM   12  C   UNL     1     -10.275   8.446  72.025  1.00  0.00    -0.364 A  
HETATM   13  C   UNL     1     -11.592   8.272  72.461  1.00  0.00    -0.454 A  
HETATM   14  C   UNL     1     -12.616   9.005  71.874  1.00  0.00    -0.382 A  
HETATM   15  C   UNL     1     -12.333   9.905  70.855  1.00  0.00    -0.403 A  
HETATM   16 CL   UNL     1     -14.231   8.798  72.424  1.00  0.00    -0.509 Cl 
HETATM   17  C   UNL     1     -11.019  10.030  70.380  1.00  0.00    -0.320 A  
HETATM   18 CL   UNL     1     -10.721  11.158  69.108  1.00  0.00    -0.252 Cl 
ENDBRANCH  10  11
ENDBRANCH   3  10
ENDBRANCH   2   3
TORSDOF 5
ENDMDL
MODEL      147
REMARK 921   NORMALIZED FREE ENERGY PREDICTED BY IDOCK:   -3.13 KCAL/MOL
REMARK 922        TOTAL FREE ENERGY PREDICTED BY IDOCK:   -4.47 KCAL/MOL
REMARK 923 INTER-LIGAND FREE ENERGY PREDICTED BY IDOCK:   -4.92 KCAL/MOL
REMARK 924 INTRA-LIGAND FREE ENERGY PREDICTED BY IDOCK:    0.45 KCAL/MOL
REMARK 927      BINDING AFFINITY PREDICTED BY RF-SCORE:    0.00 PKD
ROOT
HETATM    1  C   UNL     1     -12.659  14.136  65.583  1.00  0.00    -0.470 C  
HETATM    2  O   UNL     1     -11.619  13.729  66.453  1.00  0.00    -0.331 OA 
ENDROOT
BRANCH   2   3
HETATM    3  P   UNL     1     -11.093  12.082  66.482  1.00  0.00    -0.339 P  
HETATM    4  S   UNL     1      -9.263  12.614  67.145  1.00  0.00    -0.221 S  
BRANCH   3   5
HETATM    5  N   UNL     1     -12.123  11.879  67.830  1.00  0.00    -0.527 NA 
HETATM    6  H   UNL     1     -13.112  11.704  67.652  1.00  0.00     0.000 HD 
BRANCH   5   7
HETATM    7  C   UNL     1     -11.677  11.939  69.225  1.00  0.00    -0.328 C  
HETATM    8  C   UNL     1     -12.003  13.305  69.834  1.00  0.00    -0.400 C  
HETATM    9  C   UNL     1     -12.295  10.842  70.098  1.00  0.00    -0.401 C  
ENDBRANCH   5   7
ENDBRANCH   3   5
BRANCH   3  10
HETATM   10  O   UNL     1     -10.569  10.433  66.509  1.00  0.00    -0.218 OA 
BRANCH  10  11
HETATM   11  C   UNL     1      -9.630   9.962  65.621  1.00  0.00    -0.256 A  
HETATM   12  C   UNL     1      -8.550   9.166  66.001  1.00  0.00    -0.162 A  
HETATM   13  C   UNL     1      -7.529   8.857  65.097  1.00  0.00    -0.097 A  
HETATM   14  C   UNL     1      -7.632   9.267  63.773  1.00  0.00    -0.112 A  
HETATM   15  C   UNL     1      -8.742   9.986  63.350  1.00  0.00    -0.226 A  
HETATM   16 CL   UNL     1      -6.381   8.872  62.663  1.00  0.00    -0.095 Cl 
HETATM   17  C   UNL     1      -9.734  10.346  64.276  1.00  0.00    -0.326 A  
HETATM   18 CL   UNL     1     -11.091  11.243  63.700  1.00  0.00    -0.407 Cl 
ENDBRANCH  10  11
ENDBRANCH   3  10
ENDBRANCH   2   3
TORSDOF 5
ENDMDL
MODEL      148
REMARK 921   NORMALIZED FREE ENERGY PREDICTED BY IDOCK:   -3.13 KCAL/MOL
REMARK 922        TOTAL FREE ENERGY PREDICTED BY IDOCK:   -4.47 KCAL/MOL
REMARK 923 INTER-LIGAND FREE ENERGY PREDICTED BY IDOCK:   -4.30 KCAL/MOL
REMARK 924 INTRA-LIGAND FREE ENERGY PREDICTED BY IDOCK:   -0.16 KCAL/MOL
REMARK 927      BINDING AFFINITY PREDICTED BY RF-SCORE:    0.00 PKD
ROOT
HETATM    1  C   UNL     1     -10.875  17.554  65.093  1.00  0.00     0.233 C  
HETATM    2  O   UNL     1     -10.822  17.986  66.441  1.00  0.00    -0.186 OA 
ENDROOT
BRANCH   2   3
HETATM    3  P   UNL     1     -10.248  16.924  67.679  1.00  0.00    -0.324 P  
HETATM    4  S   UNL     1      -9.061  15.945  66.373  1.00  0.00    -0.348 S  
BRANCH   3   5
HETATM    5  N   UNL     1      -9.390  18.266  68.297  1.00  0.00    -0.298 NA 
HETATM    6  H   UNL     1      -9.640  18.605  69.225  1.00  0.00     0.000 HD 
BRANCH   5   7
HETATM    7  C   UNL     1      -8.317  18.959  67.578  1.00  0.00    -0.273 C  
HETATM    8  C   UNL     1      -8.582  20.467  67.542  1.00  0.00    -0.358 C  
HETATM    9  C   UNL     1      -6.932  18.710  68.185  1.00  0.00    -0.257 C  
ENDBRANCH   5   7
ENDBRANCH   3   5
BRANCH   3  10
HETATM   10  O   UNL     1      -9.675  15.861  68.918  1.00  0.00    -0.206 OA 
BRANCH  10  11
HETATM   11  C   UNL     1     -10.280  14.650  69.165  1.00  0.00    -0.193 A  
HETATM   12  C   UNL     1      -9.895  13.463  68.542  1.00  0.00    -0.178 A  
HETATM   13  C   UNL     1     -10.648  12.295  68.690  1.00  0.00    -0.249 A  
HETATM   14  C   UNL     1     -11.745  12.284  69.543  1.00  0.00    -0.332 A  
HETATM   15  C   UNL     1     -12.095  13.431  70.243  1.00  0.00    -0.419 A  
HETATM   16 CL   UNL     1     -12.658  10.841  69.733  1.00  0.00    -0.242 Cl 
HETATM   17  C   UNL     1     -11.373  14.617  70.043  1.00  0.00    -0.242 A  
HETATM   18 CL   UNL     1     -11.852  16.016  70.933  1.00  0.00    -0.430 Cl 
ENDBRANCH  10  11
ENDBRANCH   3  10
ENDBRANCH   2   3
TORSDOF 5
ENDMDL
MODEL      149
REMARK 921   NORMALIZED FREE ENERGY PREDICTED BY IDOCK:   -3.12 KCAL/MOL
REMARK 922        TOTAL FREE ENERGY PREDICTED BY IDOCK:   -4.46 KCAL/MOL
REMARK 923 INTER-LIGAND FREE ENERGY PREDICTED BY IDOCK:   -3.89 KCAL/MOL
REMARK 924 INTRA-LIGAND FREE ENERGY PREDICTED BY IDOCK:   -0.56 KCAL/MOL
REMARK 927      BINDING AFFINITY PREDICTED BY RF-SCORE:    0.00 PKD
ROOT
HETATM    1  C   UNL     1      -8.272   9.040  64.110  1.00  0.00    -0.166 C  
HETATM    2  O   UNL     1      -9.414   9.370  64.880  1.00  0.00    -0.229 OA 
ENDROOT
BRANCH   2   3
HETATM    3  P   UNL     1      -9.407   9.150  66.595  1.00  0.00    -0.211 P  
HETATM    4  S   UNL     1      -9.476   7.142  66.398  1.00  0.00    -0.073 S  
BRANCH   3   5
HETATM    5  N   UNL     1      -7.773   9.646  66.555  1.00  0.00    -0.097 NA 
HETATM    6  H   UNL     1      -7.094   9.017  66.127  1.00  0.00     0.000 HD 
BRANCH   5   7
HETATM    7  C   UNL     1      -7.284  10.919  67.095  1.00  0.00    -0.104 C  
HETATM    8  C   UNL     1      -5.981  11.330  66.404  1.00  0.00    -0.128 C  
HETATM    9  C   UNL     1      -8.302  12.056  66.960  1.00  0.00    -0.178 C  
ENDBRANCH   5   7
ENDBRANCH   3   5
BRANCH   3  10
HETATM   10  O   UNL     1      -9.401   8.931  68.312  1.00  0.00    -0.142 OA 
BRANCH  10  11
HETATM   11  C   UNL     1     -10.399   9.447  69.106  1.00  0.00    -0.211 A  
HETATM   12  C   UNL     1     -11.353  10.352  68.643  1.00  0.00    -0.277 A  
HETATM   13  C   UNL     1     -12.238  10.981  69.524  1.00  0.00    -0.352 A  
HETATM   14  C   UNL     1     -12.233  10.635  70.870  1.00  0.00    -0.395 A  
HETATM   15  C   UNL     1     -11.351   9.671  71.339  1.00  0.00    -0.444 A  
HETATM   16 CL   UNL     1     -13.332  11.401  71.947  1.00  0.00    -0.502 Cl 
HETATM   17  C   UNL     1     -10.425   9.087  70.462  1.00  0.00    -0.223 A  
HETATM   18 CL   UNL     1      -9.347   7.898  71.096  1.00  0.00    -0.163 Cl 
ENDBRANCH  10  11
ENDBRANCH   3  10
ENDBRANCH   2   3
TORSDOF 5
ENDMDL
MODEL      150
REMARK 921   NORMALIZED FREE ENERGY PREDICTED BY IDOCK:   -3.11 KCAL/MOL
REMARK 922        TOTAL FREE ENERGY PREDICTED BY IDOCK:   -4.43 KCAL/MOL
REMARK 923 INTER-LIGAND FREE ENERGY PREDICTED BY IDOCK:   -4.01 KCAL/MOL
REMARK 924 INTRA-LIGAND FREE ENERGY PREDICTED BY IDOCK:   -0.43 KCAL/MOL
REMARK 927      BINDING AFFINITY PREDICTED BY RF-SCORE:    0.00 PKD
ROOT
HETATM    1  C   UNL     1      -6.852  16.587  69.219  1.00  0.00    -0.224 C  
HETATM    2  O   UNL     1      -7.338  15.928  68.063  1.00  0.00    -0.122 OA 
ENDROOT
BRANCH   2   3
HETATM    3  P   UNL     1      -8.034  14.350  68.181  1.00  0.00    -0.165 P  
HETATM    4  S   UNL     1      -6.388  13.627  69.099  1.00  0.00    -0.108 S  
BRANCH   3   5
HETATM    5  N   UNL     1      -9.076  15.004  69.367  1.00  0.00    -0.405 NA 
HETATM    6  H   UNL     1      -8.666  15.289  70.256  1.00  0.00     0.000 HD 
BRANCH   5   7
HETATM    7  C   UNL     1     -10.520  15.183  69.188  1.00  0.00    -0.252 C  
HETATM    8  C   UNL     1     -11.205  15.402  70.539  1.00  0.00    -0.358 C  
HETATM    9  C   UNL     1     -10.866  16.350  68.257  1.00  0.00    -0.347 C  
ENDBRANCH   5   7
ENDBRANCH   3   5
BRANCH   3  10
HETATM   10  O   UNL     1      -8.731  12.770  68.299  1.00  0.00    -0.183 OA 
BRANCH  10  11
HETATM   11  C   UNL     1      -8.813  11.937  67.207  1.00  0.00    -0.179 A  
HETATM   12  C   UNL     1      -7.719  11.243  66.692  1.00  0.00    -0.148 A  
HETATM   13  C   UNL     1      -7.810  10.548  65.483  1.00  0.00    -0.138 A  
HETATM   14  C   UNL     1      -9.032  10.465  64.825  1.00  0.00    -0.202 A  
HETATM   15  C   UNL     1     -10.157  11.074  65.365  1.00  0.00    -0.326 A  
HETATM   16 CL   UNL     1      -9.142   9.597  63.346  1.00  0.00    -0.259 Cl 
HETATM   17  C   UNL     1     -10.046  11.821  66.548  1.00  0.00    -0.203 A  
HETATM   18 CL   UNL     1     -11.472  12.562  67.175  1.00  0.00    -0.386 Cl 
ENDBRANCH  10  11
ENDBRANCH   3  10
ENDBRANCH   2   3
TORSDOF 5
ENDMDL
MODEL      151
REMARK 921   NORMALIZED FREE ENERGY PREDICTED BY IDOCK:   -3.10 KCAL/MOL
REMARK 922        TOTAL FREE ENERGY PREDICTED BY IDOCK:   -4.43 KCAL/MOL
REMARK 923 INTER-LIGAND FREE ENERGY PREDICTED BY IDOCK:   -3.78 KCAL/MOL
REMARK 924 INTRA-LIGAND FREE ENERGY PREDICTED BY IDOCK:   -0.65 KCAL/MOL
REMARK 927      BINDING AFFINITY PREDICTED BY RF-SCORE:    0.00 PKD
ROOT
HETATM    1  C   UNL     1      -6.154  10.041  67.466  1.00  0.00    -0.058 C  
HETATM    2  O   UNL     1      -7.128   9.106  67.896  1.00  0.00    -0.077 OA 
ENDROOT
BRANCH   2   3
HETATM    3  P   UNL     1      -7.942   9.321  69.407  1.00  0.00    -0.115 P  
HETATM    4  S   UNL     1      -6.572  10.670  70.022  1.00  0.00    -0.147 S  
BRANCH   3   5
HETATM    5  N   UNL     1      -9.155  10.141  68.525  1.00  0.00    -0.129 NA 
HETATM    6  H   UNL     1      -9.116  11.159  68.496  1.00  0.00     0.000 HD 
BRANCH   5   7
HETATM    7  C   UNL     1     -10.246   9.474  67.809  1.00  0.00    -0.216 C  
HETATM    8  C   UNL     1     -10.085   9.653  66.297  1.00  0.00    -0.322 C  
HETATM    9  C   UNL     1     -10.344   7.978  68.128  1.00  0.00    -0.250 C  
ENDBRANCH   5   7
ENDBRANCH   3   5
BRANCH   3  10
HETATM   10  O   UNL     1      -8.757   9.536  70.918  1.00  0.00    -0.243 OA 
BRANCH  10  11
HETATM   11  C   UNL     1      -9.351   8.480  71.571  1.00  0.00    -0.222 A  
HETATM   12  C   UNL     1      -8.656   7.338  71.966  1.00  0.00    -0.117 A  
HETATM   13  C   UNL     1      -9.331   6.221  72.468  1.00  0.00    -0.146 A  
HETATM   14  C   UNL     1     -10.706   6.277  72.665  1.00  0.00    -0.232 A  
HETATM   15  C   UNL     1     -11.407   7.436  72.363  1.00  0.00    -0.341 A  
HETATM   16 CL   UNL     1     -11.529   4.906  73.296  1.00  0.00    -0.410 Cl 
HETATM   17  C   UNL     1     -10.734   8.532  71.802  1.00  0.00    -0.303 A  
HETATM   18 CL   UNL     1     -11.652   9.947  71.438  1.00  0.00    -0.447 Cl 
ENDBRANCH  10  11
ENDBRANCH   3  10
ENDBRANCH   2   3
TORSDOF 5
ENDMDL
MODEL      152
REMARK 921   NORMALIZED FREE ENERGY PREDICTED BY IDOCK:   -3.10 KCAL/MOL
REMARK 922        TOTAL FREE ENERGY PREDICTED BY IDOCK:   -4.42 KCAL/MOL
REMARK 923 INTER-LIGAND FREE ENERGY PREDICTED BY IDOCK:   -3.74 KCAL/MOL
REMARK 924 INTRA-LIGAND FREE ENERGY PREDICTED BY IDOCK:   -0.68 KCAL/MOL
REMARK 927      BINDING AFFINITY PREDICTED BY RF-SCORE:    0.00 PKD
ROOT
HETATM    1  C   UNL     1     -12.657  12.678  64.824  1.00  0.00    -0.454 C  
HETATM    2  O   UNL     1     -12.096  12.834  66.115  1.00  0.00    -0.455 OA 
ENDROOT
BRANCH   2   3
HETATM    3  P   UNL     1     -10.395  12.644  66.360  1.00  0.00    -0.258 P  
HETATM    4  S   UNL     1     -10.071  14.614  66.057  1.00  0.00    -0.328 S  
BRANCH   3   5
HETATM    5  N   UNL     1     -10.759  12.400  68.011  1.00  0.00    -0.216 NA 
HETATM    6  H   UNL     1     -10.328  13.026  68.692  1.00  0.00     0.000 HD 
BRANCH   5   7
HETATM    7  C   UNL     1     -11.650  11.349  68.513  1.00  0.00    -0.318 C  
HETATM    8  C   UNL     1     -11.021   9.969  68.307  1.00  0.00    -0.278 C  
HETATM    9  C   UNL     1     -12.004  11.521  69.993  1.00  0.00    -0.435 C  
ENDBRANCH   5   7
ENDBRANCH   3   5
BRANCH   3  10
HETATM   10  O   UNL     1      -8.693  12.454  66.605  1.00  0.00    -0.193 OA 
BRANCH  10  11
HETATM   11  C   UNL     1      -8.109  11.209  66.659  1.00  0.00    -0.159 A  
HETATM   12  C   UNL     1      -8.255  10.252  65.656  1.00  0.00    -0.153 A  
HETATM   13  C   UNL     1      -7.791   8.945  65.832  1.00  0.00    -0.102 A  
HETATM   14  C   UNL     1      -7.090   8.612  66.985  1.00  0.00    -0.075 A  
HETATM   15  C   UNL     1      -6.854   9.572  67.960  1.00  0.00    -0.074 A  
HETATM   16 CL   UNL     1      -6.509   7.008  67.191  1.00  0.00    -0.051 Cl 
HETATM   17  C   UNL     1      -7.376  10.866  67.805  1.00  0.00    -0.093 A  
HETATM   18 CL   UNL     1      -7.060  12.021  69.047  1.00  0.00    -0.101 Cl 
ENDBRANCH  10  11
ENDBRANCH   3  10
ENDBRANCH   2   3
TORSDOF 5
ENDMDL
MODEL      153
REMARK 921   NORMALIZED FREE ENERGY PREDICTED BY IDOCK:   -3.09 KCAL/MOL
REMARK 922        TOTAL FREE ENERGY PREDICTED BY IDOCK:   -4.42 KCAL/MOL
REMARK 923 INTER-LIGAND FREE ENERGY PREDICTED BY IDOCK:   -4.00 KCAL/MOL
REMARK 924 INTRA-LIGAND FREE ENERGY PREDICTED BY IDOCK:   -0.42 KCAL/MOL
REMARK 927      BINDING AFFINITY PREDICTED BY RF-SCORE:    0.00 PKD
ROOT
HETATM    1  C   UNL     1      -6.313  15.297  69.942  1.00  0.00    -0.164 C  
HETATM    2  O   UNL     1      -6.545  15.589  68.576  1.00  0.00    -0.104 OA 
ENDROOT
BRANCH   2   3
HETATM    3  P   UNL     1      -7.867  14.857  67.735  1.00  0.00    -0.185 P  
HETATM    4  S   UNL     1      -9.162  15.379  69.193  1.00  0.00    -0.252 S  
BRANCH   3   5
HETATM    5  N   UNL     1      -7.749  16.149  66.623  1.00  0.00    -0.246 NA 
HETATM    6  H   UNL     1      -7.776  15.925  65.629  1.00  0.00     0.000 HD 
BRANCH   5   7
HETATM    7  C   UNL     1      -7.611  17.557  67.007  1.00  0.00    -0.207 C  
HETATM    8  C   UNL     1      -6.485  18.222  66.213  1.00  0.00    -0.249 C  
HETATM    9  C   UNL     1      -8.902  18.358  66.811  1.00  0.00    -0.283 C  
ENDBRANCH   5   7
ENDBRANCH   3   5
BRANCH   3  10
HETATM   10  O   UNL     1      -9.189  14.123  66.894  1.00  0.00    -0.237 OA 
BRANCH  10  11
HETATM   11  C   UNL     1      -9.435  12.772  66.978  1.00  0.00    -0.233 A  
HETATM   12  C   UNL     1      -8.427  11.809  66.948  1.00  0.00    -0.174 A  
HETATM   13  C   UNL     1      -8.733  10.448  66.862  1.00  0.00    -0.130 A  
HETATM   14  C   UNL     1     -10.059  10.035  66.900  1.00  0.00    -0.229 A  
HETATM   15  C   UNL     1     -11.078  10.971  67.020  1.00  0.00    -0.311 A  
HETATM   16 CL   UNL     1     -10.430   8.360  66.808  1.00  0.00    -0.368 Cl 
HETATM   17  C   UNL     1     -10.767  12.340  67.044  1.00  0.00    -0.231 A  
HETATM   18 CL   UNL     1     -12.069  13.463  67.189  1.00  0.00    -0.398 Cl 
ENDBRANCH  10  11
ENDBRANCH   3  10
ENDBRANCH   2   3
TORSDOF 5
ENDMDL
MODEL      154
REMARK 921   NORMALIZED FREE ENERGY PREDICTED BY IDOCK:   -3.09 KCAL/MOL
REMARK 922        TOTAL FREE ENERGY PREDICTED BY IDOCK:   -4.42 KCAL/MOL
REMARK 923 INTER-LIGAND FREE ENERGY PREDICTED BY IDOCK:   -5.56 KCAL/MOL
REMARK 924 INTRA-LIGAND FREE ENERGY PREDICTED BY IDOCK:    1.14 KCAL/MOL
REMARK 927      BINDING AFFINITY PREDICTED BY RF-SCORE:    0.00 PKD
ROOT
HETATM    1  C   UNL     1     -10.301  12.409  63.573  1.00  0.00    -0.362 C  
HETATM    2  O   UNL     1     -10.148  13.655  64.229  1.00  0.00    -0.313 OA 
ENDROOT
BRANCH   2   3
HETATM    3  P   UNL     1     -11.028  13.996  65.677  1.00  0.00    -0.325 P  
HETATM    4  S   UNL     1     -12.404  12.584  65.246  1.00  0.00    -0.282 S  
BRANCH   3   5
HETATM    5  N   UNL     1      -9.737  13.260  66.520  1.00  0.00    -0.268 NA 
HETATM    6  H   UNL     1      -9.667  12.243  66.490  1.00  0.00     0.000 HD 
BRANCH   5   7
HETATM    7  C   UNL     1      -8.723  13.996  67.281  1.00  0.00    -0.218 C  
HETATM    8  C   UNL     1      -7.415  13.203  67.340  1.00  0.00    -0.131 C  
HETATM    9  C   UNL     1      -8.438  15.388  66.708  1.00  0.00    -0.307 C  
ENDBRANCH   5   7
ENDBRANCH   3   5
BRANCH   3  10
HETATM   10  O   UNL     1     -11.908  14.339  67.127  1.00  0.00    -0.390 OA 
BRANCH  10  11
HETATM   11  C   UNL     1     -11.932  13.454  68.180  1.00  0.00    -0.321 A  
HETATM   12  C   UNL     1     -11.821  12.073  68.020  1.00  0.00    -0.338 A  
HETATM   13  C   UNL     1     -12.025  11.204  69.096  1.00  0.00    -0.413 A  
HETATM   14  C   UNL     1     -12.251  11.720  70.367  1.00  0.00    -0.330 A  
HETATM   15  C   UNL     1     -12.277  13.094  70.567  1.00  0.00    -0.405 A  
HETATM   16 CL   UNL     1     -12.486  10.648  71.689  1.00  0.00    -0.458 Cl 
HETATM   17  C   UNL     1     -12.133  13.961  69.473  1.00  0.00    -0.342 A  
HETATM   18 CL   UNL     1     -12.179  15.659  69.774  1.00  0.00    -0.352 Cl 
ENDBRANCH  10  11
ENDBRANCH   3  10
ENDBRANCH   2   3
TORSDOF 5
ENDMDL
MODEL      155
REMARK 921   NORMALIZED FREE ENERGY PREDICTED BY IDOCK:   -3.09 KCAL/MOL
REMARK 922        TOTAL FREE ENERGY PREDICTED BY IDOCK:   -4.41 KCAL/MOL
REMARK 923 INTER-LIGAND FREE ENERGY PREDICTED BY IDOCK:   -4.00 KCAL/MOL
REMARK 924 INTRA-LIGAND FREE ENERGY PREDICTED BY IDOCK:   -0.41 KCAL/MOL
REMARK 927      BINDING AFFINITY PREDICTED BY RF-SCORE:    0.00 PKD
ROOT
HETATM    1  C   UNL     1     -11.948  14.410  68.415  1.00  0.00    -0.293 C  
HETATM    2  O   UNL     1     -10.596  13.991  68.441  1.00  0.00    -0.240 OA 
ENDROOT
BRANCH   2   3
HETATM    3  P   UNL     1     -10.199  12.308  68.401  1.00  0.00    -0.171 P  
HETATM    4  S   UNL     1     -10.785  12.155  66.475  1.00  0.00    -0.266 S  
BRANCH   3   5
HETATM    5  N   UNL     1      -8.562  12.793  68.435  1.00  0.00    -0.295 NA 
HETATM    6  H   UNL     1      -8.361  13.792  68.446  1.00  0.00     0.000 HD 
BRANCH   5   7
HETATM    7  C   UNL     1      -7.427  11.864  68.450  1.00  0.00    -0.102 C  
HETATM    8  C   UNL     1      -6.779  11.786  67.066  1.00  0.00    -0.139 C  
HETATM    9  C   UNL     1      -6.359  12.243  69.482  1.00  0.00    -0.121 C  
ENDBRANCH   5   7
ENDBRANCH   3   5
BRANCH   3  10
HETATM   10  O   UNL     1      -9.803  10.624  68.362  1.00  0.00    -0.151 OA 
BRANCH  10  11
HETATM   11  C   UNL     1     -10.357   9.734  69.253  1.00  0.00    -0.215 A  
HETATM   12  C   UNL     1     -10.643  10.058  70.578  1.00  0.00    -0.313 A  
HETATM   13  C   UNL     1     -11.041   9.077  71.490  1.00  0.00    -0.419 A  
HETATM   14  C   UNL     1     -11.246   7.773  71.055  1.00  0.00    -0.266 A  
HETATM   15  C   UNL     1     -11.052   7.445  69.721  1.00  0.00    -0.169 A  
HETATM   16 CL   UNL     1     -11.749   6.573  72.179  1.00  0.00    -0.346 Cl 
HETATM   17  C   UNL     1     -10.594   8.420  68.822  1.00  0.00    -0.125 A  
HETATM   18 CL   UNL     1     -10.365   7.960  67.175  1.00  0.00    -0.370 Cl 
ENDBRANCH  10  11
ENDBRANCH   3  10
ENDBRANCH   2   3
TORSDOF 5
ENDMDL
MODEL      156
REMARK 921   NORMALIZED FREE ENERGY PREDICTED BY IDOCK:   -3.09 KCAL/MOL
REMARK 922        TOTAL FREE ENERGY PREDICTED BY IDOCK:   -4.41 KCAL/MOL
REMARK 923 INTER-LIGAND FREE ENERGY PREDICTED BY IDOCK:   -3.79 KCAL/MOL
REMARK 924 INTRA-LIGAND FREE ENERGY PREDICTED BY IDOCK:   -0.62 KCAL/MOL
REMARK 927      BINDING AFFINITY PREDICTED BY RF-SCORE:    0.00 PKD
ROOT
HETATM    1  C   UNL     1     -11.280   6.407  68.996  1.00  0.00    -0.331 C  
HETATM    2  O   UNL     1     -10.119   6.848  69.677  1.00  0.00    -0.178 OA 
ENDROOT
BRANCH   2   3
HETATM    3  P   UNL     1      -9.585   8.486  69.527  1.00  0.00    -0.175 P  
HETATM    4  S   UNL     1      -9.779   8.795  71.512  1.00  0.00    -0.307 S  
BRANCH   3   5
HETATM    5  N   UNL     1      -8.029   7.848  69.224  1.00  0.00    -0.115 NA 
HETATM    6  H   UNL     1      -7.398   7.736  70.017  1.00  0.00     0.000 HD 
BRANCH   5   7
HETATM    7  C   UNL     1      -7.544   7.450  67.899  1.00  0.00    -0.114 C  
HETATM    8  C   UNL     1      -7.177   5.964  67.886  1.00  0.00    -0.072 C  
HETATM    9  C   UNL     1      -8.560   7.724  66.785  1.00  0.00    -0.133 C  
ENDBRANCH   5   7
ENDBRANCH   3   5
BRANCH   3  10
HETATM   10  O   UNL     1      -9.050  10.125  69.376  1.00  0.00    -0.188 OA 
BRANCH  10  11
HETATM   11  C   UNL     1      -9.778  11.057  68.672  1.00  0.00    -0.195 A  
HETATM   12  C   UNL     1     -11.068  11.448  69.031  1.00  0.00    -0.300 A  
HETATM   13  C   UNL     1     -11.833  12.264  68.193  1.00  0.00    -0.372 A  
HETATM   14  C   UNL     1     -11.273  12.773  67.027  1.00  0.00    -0.292 A  
HETATM   15  C   UNL     1      -9.960  12.469  66.693  1.00  0.00    -0.243 A  
HETATM   16 CL   UNL     1     -12.213  13.787  66.007  1.00  0.00    -0.469 Cl 
HETATM   17  C   UNL     1      -9.218  11.600  67.507  1.00  0.00    -0.172 A  
HETATM   18 CL   UNL     1      -7.592  11.249  67.046  1.00  0.00    -0.136 Cl 
ENDBRANCH  10  11
ENDBRANCH   3  10
ENDBRANCH   2   3
TORSDOF 5
ENDMDL
MODEL      157
REMARK 921   NORMALIZED FREE ENERGY PREDICTED BY IDOCK:   -3.09 KCAL/MOL
REMARK 922        TOTAL FREE ENERGY PREDICTED BY IDOCK:   -4.41 KCAL/MOL
REMARK 923 INTER-LIGAND FREE ENERGY PREDICTED BY IDOCK:   -4.23 KCAL/MOL
REMARK 924 INTRA-LIGAND FREE ENERGY PREDICTED BY IDOCK:   -0.17 KCAL/MOL
REMARK 927      BINDING AFFINITY PREDICTED BY RF-SCORE:    0.00 PKD
ROOT
HETATM    1  C   UNL     1      -6.763   6.244  66.959  1.00  0.00    -0.061 C  
HETATM    2  O   UNL     1      -7.788   6.689  66.089  1.00  0.00    -0.096 OA 
ENDROOT
BRANCH   2   3
HETATM    3  P   UNL     1      -7.867   8.347  65.604  1.00  0.00    -0.119 P  
HETATM    4  S   UNL     1      -7.702   7.848  63.655  1.00  0.00    -0.137 S  
BRANCH   3   5
HETATM    5  N   UNL     1      -9.518   8.295  66.042  1.00  0.00    -0.399 NA 
HETATM    6  H   UNL     1     -10.199   8.657  65.375  1.00  0.00     0.000 HD 
BRANCH   5   7
HETATM    7  C   UNL     1     -10.017   7.764  67.314  1.00  0.00    -0.212 C  
HETATM    8  C   UNL     1     -10.648   8.880  68.151  1.00  0.00    -0.211 C  
HETATM    9  C   UNL     1     -11.040   6.637  67.131  1.00  0.00    -0.427 C  
ENDBRANCH   5   7
ENDBRANCH   3   5
BRANCH   3  10
HETATM   10  O   UNL     1      -7.946  10.006  65.120  1.00  0.00    -0.133 OA 
BRANCH  10  11
HETATM   11  C   UNL     1      -9.108  10.734  65.233  1.00  0.00    -0.195 A  
HETATM   12  C   UNL     1     -10.115  10.720  64.269  1.00  0.00    -0.427 A  
HETATM   13  C   UNL     1     -11.195  11.605  64.341  1.00  0.00    -0.360 A  
HETATM   14  C   UNL     1     -11.322  12.451  65.436  1.00  0.00    -0.337 A  
HETATM   15  C   UNL     1     -10.378  12.420  66.454  1.00  0.00    -0.255 A  
HETATM   16 CL   UNL     1     -12.659  13.527  65.527  1.00  0.00    -0.533 Cl 
HETATM   17  C   UNL     1      -9.264  11.573  66.346  1.00  0.00    -0.208 A  
HETATM   18 CL   UNL     1      -8.117  11.577  67.635  1.00  0.00    -0.124 Cl 
ENDBRANCH  10  11
ENDBRANCH   3  10
ENDBRANCH   2   3
TORSDOF 5
ENDMDL
MODEL      158
REMARK 921   NORMALIZED FREE ENERGY PREDICTED BY IDOCK:   -3.08 KCAL/MOL
REMARK 922        TOTAL FREE ENERGY PREDICTED BY IDOCK:   -4.40 KCAL/MOL
REMARK 923 INTER-LIGAND FREE ENERGY PREDICTED BY IDOCK:   -5.06 KCAL/MOL
REMARK 924 INTRA-LIGAND FREE ENERGY PREDICTED BY IDOCK:    0.65 KCAL/MOL
REMARK 927      BINDING AFFINITY PREDICTED BY RF-SCORE:    0.00 PKD
ROOT
HETATM    1  C   UNL     1     -12.236  12.411  70.355  1.00  0.00    -0.287 C  
HETATM    2  O   UNL     1     -11.072  13.078  69.902  1.00  0.00     0.051 OA 
ENDROOT
BRANCH   2   3
HETATM    3  P   UNL     1     -10.851  13.410  68.220  1.00  0.00    -0.275 P  
HETATM    4  S   UNL     1     -11.905  11.770  67.696  1.00  0.00    -0.058 S  
BRANCH   3   5
HETATM    5  N   UNL     1     -11.938  14.711  68.433  1.00  0.00    -0.525 NA 
HETATM    6  H   UNL     1     -12.935  14.519  68.341  1.00  0.00     0.000 HD 
BRANCH   5   7
HETATM    7  C   UNL     1     -11.529  16.085  68.740  1.00  0.00    -0.375 C  
HETATM    8  C   UNL     1     -10.742  16.130  70.053  1.00  0.00    -0.318 C  
HETATM    9  C   UNL     1     -10.685  16.719  67.630  1.00  0.00    -0.305 C  
ENDBRANCH   5   7
ENDBRANCH   3   5
BRANCH   3  10
HETATM   10  O   UNL     1     -10.629  13.743  66.536  1.00  0.00    -0.276 OA 
BRANCH  10  11
HETATM   11  C   UNL     1     -10.354  12.740  65.635  1.00  0.00    -0.279 A  
HETATM   12  C   UNL     1      -9.440  11.718  65.885  1.00  0.00    -0.239 A  
HETATM   13  C   UNL     1      -9.065  10.824  64.878  1.00  0.00    -0.221 A  
HETATM   14  C   UNL     1      -9.678  10.891  63.632  1.00  0.00    -0.329 A  
HETATM   15  C   UNL     1     -10.656  11.845  63.387  1.00  0.00    -0.485 A  
HETATM   16 CL   UNL     1      -9.223   9.780  62.402  1.00  0.00    -0.306 Cl 
HETATM   17  C   UNL     1     -10.984  12.779  64.382  1.00  0.00    -0.361 A  
HETATM   18 CL   UNL     1     -12.203  13.947  64.026  1.00  0.00    -0.468 Cl 
ENDBRANCH  10  11
ENDBRANCH   3  10
ENDBRANCH   2   3
TORSDOF 5
ENDMDL
MODEL      159
REMARK 921   NORMALIZED FREE ENERGY PREDICTED BY IDOCK:   -3.08 KCAL/MOL
REMARK 922        TOTAL FREE ENERGY PREDICTED BY IDOCK:   -4.40 KCAL/MOL
REMARK 923 INTER-LIGAND FREE ENERGY PREDICTED BY IDOCK:   -4.33 KCAL/MOL
REMARK 924 INTRA-LIGAND FREE ENERGY PREDICTED BY IDOCK:   -0.07 KCAL/MOL
REMARK 927      BINDING AFFINITY PREDICTED BY RF-SCORE:    0.00 PKD
ROOT
HETATM    1  C   UNL     1     -10.249  17.351  68.462  1.00  0.00    -0.369 C  
HETATM    2  O   UNL     1     -10.757  16.078  68.105  1.00  0.00    -0.287 OA 
ENDROOT
BRANCH   2   3
HETATM    3  P   UNL     1      -9.686  14.817  67.601  1.00  0.00    -0.215 P  
HETATM    4  S   UNL     1      -8.074  15.849  68.239  1.00  0.00    -0.148 S  
BRANCH   3   5
HETATM    5  N   UNL     1     -10.302  13.905  68.908  1.00  0.00    -0.363 NA 
HETATM    6  H   UNL     1      -9.668  13.685  69.676  1.00  0.00     0.000 HD 
BRANCH   5   7
HETATM    7  C   UNL     1     -11.683  13.420  68.997  1.00  0.00    -0.323 C  
HETATM    8  C   UNL     1     -12.279  13.239  67.599  1.00  0.00    -0.181 C  
HETATM    9  C   UNL     1     -11.804  12.101  69.768  1.00  0.00    -0.397 C  
ENDBRANCH   5   7
ENDBRANCH   3   5
BRANCH   3  10
HETATM   10  O   UNL     1      -8.616  13.555  67.097  1.00  0.00    -0.205 OA 
BRANCH  10  11
HETATM   11  C   UNL     1      -9.035  12.247  67.010  1.00  0.00    -0.204 A  
HETATM   12  C   UNL     1      -8.767  11.293  67.991  1.00  0.00    -0.144 A  
HETATM   13  C   UNL     1      -9.060   9.942  67.782  1.00  0.00    -0.138 A  
HETATM   14  C   UNL     1      -9.713   9.550  66.619  1.00  0.00    -0.211 A  
HETATM   15  C   UNL     1     -10.070  10.495  65.667  1.00  0.00    -0.333 A  
HETATM   16 CL   UNL     1     -10.083   7.890  66.373  1.00  0.00    -0.231 Cl 
HETATM   17  C   UNL     1      -9.719  11.841  65.855  1.00  0.00    -0.237 A  
HETATM   18 CL   UNL     1     -10.181  12.975  64.640  1.00  0.00    -0.344 Cl 
ENDBRANCH  10  11
ENDBRANCH   3  10
ENDBRANCH   2   3
TORSDOF 5
ENDMDL
MODEL      160
REMARK 921   NORMALIZED FREE ENERGY PREDICTED BY IDOCK:   -3.05 KCAL/MOL
REMARK 922        TOTAL FREE ENERGY PREDICTED BY IDOCK:   -4.37 KCAL/MOL
REMARK 923 INTER-LIGAND FREE ENERGY PREDICTED BY IDOCK:   -4.88 KCAL/MOL
REMARK 924 INTRA-LIGAND FREE ENERGY PREDICTED BY IDOCK:    0.51 KCAL/MOL
REMARK 927      BINDING AFFINITY PREDICTED BY RF-SCORE:    0.00 PKD
ROOT
HETATM    1  C   UNL     1     -12.535  11.880  63.683  1.00  0.00    -0.470 C  
HETATM    2  O   UNL     1     -12.901  12.581  64.858  1.00  0.00    -0.758 OA 
ENDROOT
BRANCH   2   3
HETATM    3  P   UNL     1     -11.871  12.562  66.247  1.00  0.00    -0.245 P  
HETATM    4  S   UNL     1     -10.310  11.895  65.154  1.00  0.00    -0.287 S  
BRANCH   3   5
HETATM    5  N   UNL     1     -11.900  14.269  66.171  1.00  0.00    -0.391 NA 
HETATM    6  H   UNL     1     -12.409  14.769  66.899  1.00  0.00     0.000 HD 
BRANCH   5   7
HETATM    7  C   UNL     1     -11.239  15.059  65.128  1.00  0.00    -0.388 C  
HETATM    8  C   UNL     1     -12.257  15.529  64.085  1.00  0.00    -0.019 C  
HETATM    9  C   UNL     1     -10.492  16.276  65.683  1.00  0.00    -0.386 C  
ENDBRANCH   5   7
ENDBRANCH   3   5
BRANCH   3  10
HETATM   10  O   UNL     1     -10.841  12.543  67.637  1.00  0.00    -0.215 OA 
BRANCH  10  11
HETATM   11  C   UNL     1      -9.881  13.509  67.835  1.00  0.00    -0.235 A  
HETATM   12  C   UNL     1      -8.695  13.567  67.105  1.00  0.00    -0.222 A  
HETATM   13  C   UNL     1      -7.675  14.457  67.456  1.00  0.00    -0.210 A  
HETATM   14  C   UNL     1      -7.877  15.363  68.490  1.00  0.00    -0.134 A  
HETATM   15  C   UNL     1      -9.085  15.384  69.174  1.00  0.00    -0.243 A  
HETATM   16 CL   UNL     1      -6.626  16.465  68.909  1.00  0.00    -0.154 Cl 
HETATM   17  C   UNL     1     -10.081  14.448  68.857  1.00  0.00    -0.200 A  
HETATM   18 CL   UNL     1     -11.562  14.512  69.740  1.00  0.00    -0.323 Cl 
ENDBRANCH  10  11
ENDBRANCH   3  10
ENDBRANCH   2   3
TORSDOF 5
ENDMDL
MODEL      161
REMARK 921   NORMALIZED FREE ENERGY PREDICTED BY IDOCK:   -3.05 KCAL/MOL
REMARK 922        TOTAL FREE ENERGY PREDICTED BY IDOCK:   -4.36 KCAL/MOL
REMARK 923 INTER-LIGAND FREE ENERGY PREDICTED BY IDOCK:   -3.74 KCAL/MOL
REMARK 924 INTRA-LIGAND FREE ENERGY PREDICTED BY IDOCK:   -0.62 KCAL/MOL
REMARK 927      BINDING AFFINITY PREDICTED BY RF-SCORE:    0.00 PKD
ROOT
HETATM    1  C   UNL     1      -7.500   8.909  67.525  1.00  0.00    -0.085 C  
HETATM    2  O   UNL     1      -8.362   7.856  67.914  1.00  0.00    -0.124 OA 
ENDROOT
BRANCH   2   3
HETATM    3  P   UNL     1      -9.320   7.991  69.348  1.00  0.00    -0.155 P  
HETATM    4  S   UNL     1      -9.112   9.999  69.369  1.00  0.00    -0.219 S  
BRANCH   3   5
HETATM    5  N   UNL     1     -10.664   7.593  68.371  1.00  0.00    -0.392 NA 
HETATM    6  H   UNL     1     -11.243   8.356  68.023  1.00  0.00     0.000 HD 
BRANCH   5   7
HETATM    7  C   UNL     1     -11.037   6.224  68.001  1.00  0.00    -0.265 C  
HETATM    8  C   UNL     1     -10.839   6.001  66.500  1.00  0.00    -0.193 C  
HETATM    9  C   UNL     1     -10.249   5.160  68.772  1.00  0.00    -0.202 C  
ENDBRANCH   5   7
ENDBRANCH   3   5
BRANCH   3  10
HETATM   10  O   UNL     1     -10.278   8.126  70.783  1.00  0.00    -0.192 OA 
BRANCH  10  11
HETATM   11  C   UNL     1     -10.281   7.138  71.741  1.00  0.00    -0.195 A  
HETATM   12  C   UNL     1      -9.137   6.742  72.433  1.00  0.00    -0.142 A  
HETATM   13  C   UNL     1      -9.152   5.621  73.268  1.00  0.00    -0.129 A  
HETATM   14  C   UNL     1     -10.344   4.942  73.490  1.00  0.00    -0.202 A  
HETATM   15  C   UNL     1     -11.515   5.372  72.881  1.00  0.00    -0.340 A  
HETATM   16 CL   UNL     1     -10.360   3.573  74.529  1.00  0.00    -0.234 Cl 
HETATM   17  C   UNL     1     -11.482   6.460  71.995  1.00  0.00    -0.305 A  
HETATM   18 CL   UNL     1     -12.964   6.952  71.260  1.00  0.00    -0.370 Cl 
ENDBRANCH  10  11
ENDBRANCH   3  10
ENDBRANCH   2   3
TORSDOF 5
ENDMDL
MODEL      162
REMARK 921   NORMALIZED FREE ENERGY PREDICTED BY IDOCK:   -3.03 KCAL/MOL
REMARK 922        TOTAL FREE ENERGY PREDICTED BY IDOCK:   -4.33 KCAL/MOL
REMARK 923 INTER-LIGAND FREE ENERGY PREDICTED BY IDOCK:   -3.91 KCAL/MOL
REMARK 924 INTRA-LIGAND FREE ENERGY PREDICTED BY IDOCK:   -0.42 KCAL/MOL
REMARK 927      BINDING AFFINITY PREDICTED BY RF-SCORE:    0.00 PKD
ROOT
HETATM    1  C   UNL     1     -11.146   6.062  66.945  1.00  0.00    -0.165 C  
HETATM    2  O   UNL     1     -11.098   5.927  68.354  1.00  0.00    -0.268 OA 
ENDROOT
BRANCH   2   3
HETATM    3  P   UNL     1     -10.609   7.257  69.346  1.00  0.00    -0.189 P  
HETATM    4  S   UNL     1     -11.869   6.698  70.821  1.00  0.00    -0.335 S  
BRANCH   3   5
HETATM    5  N   UNL     1      -9.128   6.432  69.553  1.00  0.00    -0.138 NA 
HETATM    6  H   UNL     1      -9.050   5.780  70.333  1.00  0.00     0.000 HD 
BRANCH   5   7
HETATM    7  C   UNL     1      -7.961   6.601  68.681  1.00  0.00    -0.118 C  
HETATM    8  C   UNL     1      -6.757   7.097  69.485  1.00  0.00    -0.049 C  
HETATM    9  C   UNL     1      -7.574   5.314  67.945  1.00  0.00    -0.084 C  
ENDBRANCH   5   7
ENDBRANCH   3   5
BRANCH   3  10
HETATM   10  O   UNL     1     -10.120   8.588  70.337  1.00  0.00    -0.184 OA 
BRANCH  10  11
HETATM   11  C   UNL     1     -10.585   9.863  70.110  1.00  0.00    -0.297 A  
HETATM   12  C   UNL     1     -11.667  10.415  70.796  1.00  0.00    -0.464 A  
HETATM   13  C   UNL     1     -12.212  11.644  70.413  1.00  0.00    -0.434 A  
HETATM   14  C   UNL     1     -11.615  12.376  69.394  1.00  0.00    -0.307 A  
HETATM   15  C   UNL     1     -10.483  11.888  68.755  1.00  0.00    -0.207 A  
HETATM   16 CL   UNL     1     -12.282  13.893  68.936  1.00  0.00    -0.349 Cl 
HETATM   17  C   UNL     1      -9.977  10.626  69.103  1.00  0.00    -0.211 A  
HETATM   18 CL   UNL     1      -8.571  10.062  68.276  1.00  0.00    -0.114 Cl 
ENDBRANCH  10  11
ENDBRANCH   3  10
ENDBRANCH   2   3
TORSDOF 5
ENDMDL
MODEL      163
REMARK 921   NORMALIZED FREE ENERGY PREDICTED BY IDOCK:   -3.02 KCAL/MOL
REMARK 922        TOTAL FREE ENERGY PREDICTED BY IDOCK:   -4.32 KCAL/MOL
REMARK 923 INTER-LIGAND FREE ENERGY PREDICTED BY IDOCK:   -4.34 KCAL/MOL
REMARK 924 INTRA-LIGAND FREE ENERGY PREDICTED BY IDOCK:    0.02 KCAL/MOL
REMARK 927      BINDING AFFINITY PREDICTED BY RF-SCORE:    0.00 PKD
ROOT
HETATM    1  C   UNL     1     -12.803  12.369  71.401  1.00  0.00    -0.260 C  
HETATM    2  O   UNL     1     -11.827  12.062  70.422  1.00  0.00    -0.322 OA 
ENDROOT
BRANCH   2   3
HETATM    3  P   UNL     1     -11.486  10.418  70.010  1.00  0.00    -0.328 P  
HETATM    4  S   UNL     1     -12.965   9.747  71.209  1.00  0.00    -0.377 S  
BRANCH   3   5
HETATM    5  N   UNL     1     -12.147  10.768  68.474  1.00  0.00    -0.826 NA 
HETATM    6  H   UNL     1     -13.133  10.562  68.321  1.00  0.00     0.000 HD 
BRANCH   5   7
HETATM    7  C   UNL     1     -11.386  11.347  67.362  1.00  0.00    -0.288 C  
HETATM    8  C   UNL     1     -12.152  12.517  66.739  1.00  0.00    -0.180 C  
HETATM    9  C   UNL     1      -9.992  11.828  67.778  1.00  0.00    -0.198 C  
ENDBRANCH   5   7
ENDBRANCH   3   5
BRANCH   3  10
HETATM   10  O   UNL     1     -11.144   8.773  69.597  1.00  0.00    -0.164 OA 
BRANCH  10  11
HETATM   11  C   UNL     1     -10.156   8.447  68.697  1.00  0.00    -0.193 A  
HETATM   12  C   UNL     1     -10.416   7.887  67.447  1.00  0.00    -0.360 A  
HETATM   13  C   UNL     1      -9.377   7.413  66.639  1.00  0.00    -0.215 A  
HETATM   14  C   UNL     1      -8.058   7.585  67.041  1.00  0.00    -0.117 A  
HETATM   15  C   UNL     1      -7.772   8.221  68.241  1.00  0.00    -0.106 A  
HETATM   16 CL   UNL     1      -6.785   7.014  66.037  1.00  0.00    -0.051 Cl 
HETATM   17  C   UNL     1      -8.819   8.639  69.076  1.00  0.00    -0.138 A  
HETATM   18 CL   UNL     1      -8.410   9.419  70.559  1.00  0.00    -0.221 Cl 
ENDBRANCH  10  11
ENDBRANCH   3  10
ENDBRANCH   2   3
TORSDOF 5
ENDMDL
MODEL      164
REMARK 921   NORMALIZED FREE ENERGY PREDICTED BY IDOCK:   -3.02 KCAL/MOL
REMARK 922        TOTAL FREE ENERGY PREDICTED BY IDOCK:   -4.32 KCAL/MOL
REMARK 923 INTER-LIGAND FREE ENERGY PREDICTED BY IDOCK:   -3.95 KCAL/MOL
REMARK 924 INTRA-LIGAND FREE ENERGY PREDICTED BY IDOCK:   -0.36 KCAL/MOL
REMARK 927      BINDING AFFINITY PREDICTED BY RF-SCORE:    0.00 PKD
ROOT
HETATM    1  C   UNL     1      -6.460   6.694  66.691  1.00  0.00    -0.043 C  
HETATM    2  O   UNL     1      -7.054   7.877  67.196  1.00  0.00    -0.075 OA 
ENDROOT
BRANCH   2   3
HETATM    3  P   UNL     1      -8.493   8.511  66.476  1.00  0.00    -0.124 P  
HETATM    4  S   UNL     1      -7.711   8.345  64.622  1.00  0.00    -0.119 S  
BRANCH   3   5
HETATM    5  N   UNL     1      -9.236   7.029  66.888  1.00  0.00    -0.144 NA 
HETATM    6  H   UNL     1      -9.565   6.433  66.129  1.00  0.00     0.000 HD 
BRANCH   5   7
HETATM    7  C   UNL     1      -9.431   6.559  68.264  1.00  0.00    -0.118 C  
HETATM    8  C   UNL     1     -10.404   7.474  69.010  1.00  0.00    -0.217 C  
HETATM    9  C   UNL     1      -9.945   5.118  68.335  1.00  0.00    -0.214 C  
ENDBRANCH   5   7
ENDBRANCH   3   5
BRANCH   3  10
HETATM   10  O   UNL     1      -9.933   9.146  65.756  1.00  0.00    -0.277 OA 
BRANCH  10  11
HETATM   11  C   UNL     1     -10.379  10.416  66.040  1.00  0.00    -0.192 A  
HETATM   12  C   UNL     1     -10.666  10.854  67.332  1.00  0.00    -0.305 A  
HETATM   13  C   UNL     1     -11.280  12.090  67.555  1.00  0.00    -0.357 A  
HETATM   14  C   UNL     1     -11.527  12.940  66.484  1.00  0.00    -0.341 A  
HETATM   15  C   UNL     1     -11.168  12.563  65.197  1.00  0.00    -0.342 A  
HETATM   16 CL   UNL     1     -12.269  14.465  66.765  1.00  0.00    -0.405 Cl 
HETATM   17  C   UNL     1     -10.608  11.296  64.972  1.00  0.00    -0.289 A  
HETATM   18 CL   UNL     1     -10.185  10.873  63.354  1.00  0.00    -0.390 Cl 
ENDBRANCH  10  11
ENDBRANCH   3  10
ENDBRANCH   2   3
TORSDOF 5
ENDMDL
MODEL      165
REMARK 921   NORMALIZED FREE ENERGY PREDICTED BY IDOCK:   -2.99 KCAL/MOL
REMARK 922        TOTAL FREE ENERGY PREDICTED BY IDOCK:   -4.29 KCAL/MOL
REMARK 923 INTER-LIGAND FREE ENERGY PREDICTED BY IDOCK:   -4.10 KCAL/MOL
REMARK 924 INTRA-LIGAND FREE ENERGY PREDICTED BY IDOCK:   -0.19 KCAL/MOL
REMARK 927      BINDING AFFINITY PREDICTED BY RF-SCORE:    0.00 PKD
ROOT
HETATM    1  C   UNL     1     -11.623  10.955  69.945  1.00  0.00    -0.331 C  
HETATM    2  O   UNL     1     -10.593  10.213  70.572  1.00  0.00    -0.290 OA 
ENDROOT
BRANCH   2   3
HETATM    3  P   UNL     1     -10.554   8.488  70.446  1.00  0.00    -0.232 P  
HETATM    4  S   UNL     1      -9.730   8.313  72.281  1.00  0.00    -0.316 S  
BRANCH   3   5
HETATM    5  N   UNL     1     -12.254   8.535  70.614  1.00  0.00    -0.490 NA 
HETATM    6  H   UNL     1     -12.804   8.823  69.805  1.00  0.00     0.000 HD 
BRANCH   5   7
HETATM    7  C   UNL     1     -12.970   8.189  71.845  1.00  0.00    -0.333 C  
HETATM    8  C   UNL     1     -13.350   9.454  72.619  1.00  0.00    -0.300 C  
HETATM    9  C   UNL     1     -14.234   7.362  71.588  1.00  0.00    -0.583 C  
ENDBRANCH   5   7
ENDBRANCH   3   5
BRANCH   3  10
HETATM   10  O   UNL     1     -10.515   6.763  70.320  1.00  0.00    -0.198 OA 
BRANCH  10  11
HETATM   11  C   UNL     1      -9.489   6.112  69.675  1.00  0.00    -0.145 A  
HETATM   12  C   UNL     1      -8.388   5.573  70.341  1.00  0.00    -0.111 A  
HETATM   13  C   UNL     1      -7.290   5.077  69.634  1.00  0.00    -0.056 A  
HETATM   14  C   UNL     1      -7.328   5.030  68.245  1.00  0.00    -0.074 A  
HETATM   15  C   UNL     1      -8.450   5.479  67.563  1.00  0.00    -0.106 A  
HETATM   16 CL   UNL     1      -5.980   4.405  67.381  1.00  0.00    -0.023 Cl 
HETATM   17  C   UNL     1      -9.524   6.033  68.276  1.00  0.00    -0.115 A  
HETATM   18 CL   UNL     1     -10.894   6.581  67.380  1.00  0.00    -0.401 Cl 
ENDBRANCH  10  11
ENDBRANCH   3  10
ENDBRANCH   2   3
TORSDOF 5
ENDMDL
MODEL      166
REMARK 921   NORMALIZED FREE ENERGY PREDICTED BY IDOCK:   -2.99 KCAL/MOL
REMARK 922        TOTAL FREE ENERGY PREDICTED BY IDOCK:   -4.28 KCAL/MOL
REMARK 923 INTER-LIGAND FREE ENERGY PREDICTED BY IDOCK:   -3.97 KCAL/MOL
REMARK 924 INTRA-LIGAND FREE ENERGY PREDICTED BY IDOCK:   -0.31 KCAL/MOL
REMARK 927      BINDING AFFINITY PREDICTED BY RF-SCORE:    0.00 PKD
ROOT
HETATM    1  C   UNL     1     -10.625   7.497  67.885  1.00  0.00    -0.185 C  
HETATM    2  O   UNL     1     -10.857   8.719  67.208  1.00  0.00    -0.214 OA 
ENDROOT
BRANCH   2   3
HETATM    3  P   UNL     1     -10.356  10.218  67.909  1.00  0.00    -0.230 P  
HETATM    4  S   UNL     1     -10.602   9.495  69.778  1.00  0.00    -0.249 S  
BRANCH   3   5
HETATM    5  N   UNL     1      -8.780   9.828  67.377  1.00  0.00    -0.132 NA 
HETATM    6  H   UNL     1      -8.196   9.260  67.992  1.00  0.00     0.000 HD 
BRANCH   5   7
HETATM    7  C   UNL     1      -8.212  10.258  66.095  1.00  0.00    -0.138 C  
HETATM    8  C   UNL     1      -6.702  10.471  66.222  1.00  0.00    -0.123 C  
HETATM    9  C   UNL     1      -8.484   9.266  64.960  1.00  0.00    -0.178 C  
ENDBRANCH   5   7
ENDBRANCH   3   5
BRANCH   3  10
HETATM   10  O   UNL     1      -9.855  11.719  68.610  1.00  0.00    -0.198 OA 
BRANCH  10  11
HETATM   11  C   UNL     1     -10.091  12.920  67.983  1.00  0.00    -0.235 A  
HETATM   12  C   UNL     1      -9.458  13.302  66.801  1.00  0.00    -0.257 A  
HETATM   13  C   UNL     1      -9.596  14.598  66.295  1.00  0.00    -0.333 A  
HETATM   14  C   UNL     1     -10.450  15.496  66.923  1.00  0.00    -0.301 A  
HETATM   15  C   UNL     1     -11.160  15.110  68.052  1.00  0.00    -0.310 A  
HETATM   16 CL   UNL     1     -10.628  17.083  66.289  1.00  0.00    -0.241 Cl 
HETATM   17  C   UNL     1     -10.970  13.828  68.591  1.00  0.00    -0.266 A  
HETATM   18 CL   UNL     1     -11.873  13.399  69.998  1.00  0.00    -0.382 Cl 
ENDBRANCH  10  11
ENDBRANCH   3  10
ENDBRANCH   2   3
TORSDOF 5
ENDMDL
MODEL      167
REMARK 921   NORMALIZED FREE ENERGY PREDICTED BY IDOCK:   -2.98 KCAL/MOL
REMARK 922        TOTAL FREE ENERGY PREDICTED BY IDOCK:   -4.27 KCAL/MOL
REMARK 923 INTER-LIGAND FREE ENERGY PREDICTED BY IDOCK:   -3.85 KCAL/MOL
REMARK 924 INTRA-LIGAND FREE ENERGY PREDICTED BY IDOCK:   -0.42 KCAL/MOL
REMARK 927      BINDING AFFINITY PREDICTED BY RF-SCORE:    0.00 PKD
ROOT
HETATM    1  C   UNL     1     -12.643   9.504  71.631  1.00  0.00    -0.388 C  
HETATM    2  O   UNL     1     -11.229   9.440  71.645  1.00  0.00    -0.370 OA 
ENDROOT
BRANCH   2   3
HETATM    3  P   UNL     1     -10.410   8.019  71.095  1.00  0.00    -0.203 P  
HETATM    4  S   UNL     1      -8.610   8.913  71.275  1.00  0.00    -0.161 S  
BRANCH   3   5
HETATM    5  N   UNL     1     -10.823   7.318  72.597  1.00  0.00    -0.266 NA 
HETATM    6  H   UNL     1     -11.466   7.830  73.202  1.00  0.00     0.000 HD 
BRANCH   5   7
HETATM    7  C   UNL     1     -10.314   6.028  73.073  1.00  0.00    -0.204 C  
HETATM    8  C   UNL     1      -9.720   6.171  74.477  1.00  0.00    -0.287 C  
HETATM    9  C   UNL     1     -11.385   4.933  73.093  1.00  0.00    -0.395 C  
ENDBRANCH   5   7
ENDBRANCH   3   5
BRANCH   3  10
HETATM   10  O   UNL     1      -9.593   6.597  70.545  1.00  0.00    -0.168 OA 
BRANCH  10  11
HETATM   11  C   UNL     1      -9.534   6.273  69.209  1.00  0.00    -0.134 A  
HETATM   12  C   UNL     1     -10.665   6.151  68.402  1.00  0.00    -0.361 A  
HETATM   13  C   UNL     1     -10.571   5.651  67.100  1.00  0.00    -0.344 A  
HETATM   14  C   UNL     1      -9.324   5.357  66.562  1.00  0.00    -0.145 A  
HETATM   15  C   UNL     1      -8.175   5.555  67.316  1.00  0.00    -0.101 A  
HETATM   16 CL   UNL     1      -9.213   4.757  64.956  1.00  0.00    -0.153 Cl 
HETATM   17  C   UNL     1      -8.280   5.999  68.643  1.00  0.00    -0.107 A  
HETATM   18 CL   UNL     1      -6.823   6.224  69.540  1.00  0.00    -0.063 Cl 
ENDBRANCH  10  11
ENDBRANCH   3  10
ENDBRANCH   2   3
TORSDOF 5
ENDMDL
MODEL      168
REMARK 921   NORMALIZED FREE ENERGY PREDICTED BY IDOCK:   -2.98 KCAL/MOL
REMARK 922        TOTAL FREE ENERGY PREDICTED BY IDOCK:   -4.27 KCAL/MOL
REMARK 923 INTER-LIGAND FREE ENERGY PREDICTED BY IDOCK:   -3.71 KCAL/MOL
REMARK 924 INTRA-LIGAND FREE ENERGY PREDICTED BY IDOCK:   -0.55 KCAL/MOL
REMARK 927      BINDING AFFINITY PREDICTED BY RF-SCORE:    0.00 PKD
ROOT
HETATM    1  C   UNL     1     -11.887   9.887  70.764  1.00  0.00    -0.330 C  
HETATM    2  O   UNL     1     -10.567  10.328  70.503  1.00  0.00    -0.251 OA 
ENDROOT
BRANCH   2   3
HETATM    3  P   UNL     1      -9.581   9.504  69.346  1.00  0.00    -0.204 P  
HETATM    4  S   UNL     1      -8.282   8.923  70.778  1.00  0.00    -0.186 S  
BRANCH   3   5
HETATM    5  N   UNL     1     -10.834   8.348  69.246  1.00  0.00    -0.411 NA 
HETATM    6  H   UNL     1     -11.794   8.689  69.194  1.00  0.00     0.000 HD 
BRANCH   5   7
HETATM    7  C   UNL     1     -10.619   6.898  69.230  1.00  0.00    -0.226 C  
HETATM    8  C   UNL     1     -11.355   6.233  70.396  1.00  0.00    -0.440 C  
HETATM    9  C   UNL     1     -11.064   6.242  67.919  1.00  0.00    -0.360 C  
ENDBRANCH   5   7
ENDBRANCH   3   5
BRANCH   3  10
HETATM   10  O   UNL     1      -8.594   8.680  68.188  1.00  0.00    -0.138 OA 
BRANCH  10  11
HETATM   11  C   UNL     1      -8.387   9.190  66.927  1.00  0.00    -0.119 A  
HETATM   12  C   UNL     1      -9.263   8.976  65.863  1.00  0.00    -0.290 A  
HETATM   13  C   UNL     1      -8.926   9.364  64.563  1.00  0.00    -0.227 A  
HETATM   14  C   UNL     1      -7.743  10.057  64.334  1.00  0.00    -0.145 A  
HETATM   15  C   UNL     1      -6.897  10.360  65.392  1.00  0.00    -0.120 A  
HETATM   16 CL   UNL     1      -7.341  10.544  62.736  1.00  0.00    -0.121 Cl 
HETATM   17  C   UNL     1      -7.210   9.914  66.686  1.00  0.00    -0.091 A  
HETATM   18 CL   UNL     1      -6.123  10.312  67.965  1.00  0.00    -0.051 Cl 
ENDBRANCH  10  11
ENDBRANCH   3  10
ENDBRANCH   2   3
TORSDOF 5
ENDMDL
MODEL      169
REMARK 921   NORMALIZED FREE ENERGY PREDICTED BY IDOCK:   -2.95 KCAL/MOL
REMARK 922        TOTAL FREE ENERGY PREDICTED BY IDOCK:   -4.24 KCAL/MOL
REMARK 923 INTER-LIGAND FREE ENERGY PREDICTED BY IDOCK:   -3.72 KCAL/MOL
REMARK 924 INTRA-LIGAND FREE ENERGY PREDICTED BY IDOCK:   -0.51 KCAL/MOL
REMARK 927      BINDING AFFINITY PREDICTED BY RF-SCORE:    0.00 PKD
ROOT
HETATM    1  C   UNL     1     -10.491   4.133  64.665  1.00  0.00    -0.168 C  
HETATM    2  O   UNL     1     -10.370   4.480  66.033  1.00  0.00    -0.267 OA 
ENDROOT
BRANCH   2   3
HETATM    3  P   UNL     1      -9.692   6.003  66.493  1.00  0.00    -0.088 P  
HETATM    4  S   UNL     1      -8.462   5.120  67.829  1.00  0.00    -0.104 S  
BRANCH   3   5
HETATM    5  N   UNL     1      -8.923   6.012  64.968  1.00  0.00    -0.366 NA 
HETATM    6  H   UNL     1      -9.512   5.965  64.137  1.00  0.00     0.000 HD 
BRANCH   5   7
HETATM    7  C   UNL     1      -7.471   6.082  64.777  1.00  0.00    -0.079 C  
HETATM    8  C   UNL     1      -6.924   4.727  64.318  1.00  0.00    -0.049 C  
HETATM    9  C   UNL     1      -7.052   7.157  63.769  1.00  0.00    -0.068 C  
ENDBRANCH   5   7
ENDBRANCH   3   5
BRANCH   3  10
HETATM   10  O   UNL     1      -9.014   7.527  66.954  1.00  0.00    -0.125 OA 
BRANCH  10  11
HETATM   11  C   UNL     1      -9.701   8.705  66.770  1.00  0.00    -0.233 A  
HETATM   12  C   UNL     1      -9.662   9.434  65.582  1.00  0.00    -0.336 A  
HETATM   13  C   UNL     1     -10.232  10.708  65.499  1.00  0.00    -0.329 A  
HETATM   14  C   UNL     1     -10.931  11.223  66.585  1.00  0.00    -0.268 A  
HETATM   15  C   UNL     1     -11.059  10.477  67.749  1.00  0.00    -0.382 A  
HETATM   16 CL   UNL     1     -11.642  12.783  66.473  1.00  0.00    -0.407 Cl 
HETATM   17  C   UNL     1     -10.433   9.225  67.847  1.00  0.00    -0.236 A  
HETATM   18 CL   UNL     1     -10.618   8.341  69.317  1.00  0.00    -0.218 Cl 
ENDBRANCH  10  11
ENDBRANCH   3  10
ENDBRANCH   2   3
TORSDOF 5
ENDMDL
MODEL      170
REMARK 921   NORMALIZED FREE ENERGY PREDICTED BY IDOCK:   -2.94 KCAL/MOL
REMARK 922        TOTAL FREE ENERGY PREDICTED BY IDOCK:   -4.23 KCAL/MOL
REMARK 923 INTER-LIGAND FREE ENERGY PREDICTED BY IDOCK:   -3.92 KCAL/MOL
REMARK 924 INTRA-LIGAND FREE ENERGY PREDICTED BY IDOCK:   -0.31 KCAL/MOL
REMARK 927      BINDING AFFINITY PREDICTED BY RF-SCORE:    0.00 PKD
ROOT
HETATM    1  C   UNL     1     -11.644  15.533  68.364  1.00  0.00    -0.357 C  
HETATM    2  O   UNL     1     -10.353  14.963  68.239  1.00  0.00    -0.225 OA 
ENDROOT
BRANCH   2   3
HETATM    3  P   UNL     1     -10.084  13.625  67.178  1.00  0.00    -0.252 P  
HETATM    4  S   UNL     1     -11.881  13.886  66.296  1.00  0.00    -0.431 S  
BRANCH   3   5
HETATM    5  N   UNL     1      -8.939  14.612  66.382  1.00  0.00    -0.466 NA 
HETATM    6  H   UNL     1      -8.754  14.428  65.396  1.00  0.00     0.000 HD 
BRANCH   5   7
HETATM    7  C   UNL     1      -8.205  15.706  67.025  1.00  0.00    -0.233 C  
HETATM    8  C   UNL     1      -6.827  15.228  67.490  1.00  0.00    -0.218 C  
HETATM    9  C   UNL     1      -8.030  16.925  66.114  1.00  0.00    -0.290 C  
ENDBRANCH   5   7
ENDBRANCH   3   5
BRANCH   3  10
HETATM   10  O   UNL     1      -9.815  12.286  66.116  1.00  0.00    -0.235 OA 
BRANCH  10  11
HETATM   11  C   UNL     1      -9.106  11.178  66.521  1.00  0.00    -0.182 A  
HETATM   12  C   UNL     1      -7.772  10.957  66.178  1.00  0.00    -0.133 A  
HETATM   13  C   UNL     1      -7.147   9.740  66.464  1.00  0.00    -0.090 A  
HETATM   14  C   UNL     1      -7.829   8.766  67.183  1.00  0.00    -0.096 A  
HETATM   15  C   UNL     1      -9.129   8.998  67.614  1.00  0.00    -0.144 A  
HETATM   16 CL   UNL     1      -7.051   7.277  67.545  1.00  0.00    -0.082 Cl 
HETATM   17  C   UNL     1      -9.772  10.197  67.271  1.00  0.00    -0.167 A  
HETATM   18 CL   UNL     1     -11.389  10.436  67.825  1.00  0.00    -0.317 Cl 
ENDBRANCH  10  11
ENDBRANCH   3  10
ENDBRANCH   2   3
TORSDOF 5
ENDMDL
MODEL      171
REMARK 921   NORMALIZED FREE ENERGY PREDICTED BY IDOCK:   -2.94 KCAL/MOL
REMARK 922        TOTAL FREE ENERGY PREDICTED BY IDOCK:   -4.22 KCAL/MOL
REMARK 923 INTER-LIGAND FREE ENERGY PREDICTED BY IDOCK:   -3.65 KCAL/MOL
REMARK 924 INTRA-LIGAND FREE ENERGY PREDICTED BY IDOCK:   -0.57 KCAL/MOL
REMARK 927      BINDING AFFINITY PREDICTED BY RF-SCORE:    0.00 PKD
ROOT
HETATM    1  C   UNL     1      -8.498   7.345  65.813  1.00  0.00    -0.143 C  
HETATM    2  O   UNL     1      -9.187   6.328  66.518  1.00  0.00    -0.147 OA 
ENDROOT
BRANCH   2   3
HETATM    3  P   UNL     1      -9.276   6.363  68.244  1.00  0.00    -0.108 P  
HETATM    4  S   UNL     1      -9.382   4.350  68.340  1.00  0.00    -0.155 S  
BRANCH   3   5
HETATM    5  N   UNL     1      -7.630   6.822  68.222  1.00  0.00    -0.105 NA 
HETATM    6  H   UNL     1      -7.396   7.737  67.839  1.00  0.00     0.000 HD 
BRANCH   5   7
HETATM    7  C   UNL     1      -6.534   5.984  68.719  1.00  0.00    -0.049 C  
HETATM    8  C   UNL     1      -5.655   5.507  67.560  1.00  0.00    -0.012 C  
HETATM    9  C   UNL     1      -5.656   6.699  69.751  1.00  0.00    -0.015 C  
ENDBRANCH   5   7
ENDBRANCH   3   5
BRANCH   3  10
HETATM   10  O   UNL     1      -9.365   6.399  69.972  1.00  0.00    -0.155 OA 
BRANCH  10  11
HETATM   11  C   UNL     1     -10.379   7.061  70.626  1.00  0.00    -0.207 A  
HETATM   12  C   UNL     1     -11.635   6.500  70.853  1.00  0.00    -0.417 A  
HETATM   13  C   UNL     1     -12.686   7.268  71.364  1.00  0.00    -0.427 A  
HETATM   14  C   UNL     1     -12.457   8.586  71.741  1.00  0.00    -0.342 A  
HETATM   15  C   UNL     1     -11.191   9.140  71.607  1.00  0.00    -0.447 A  
HETATM   16 CL   UNL     1     -13.748   9.522  72.382  1.00  0.00    -0.470 Cl 
HETATM   17  C   UNL     1     -10.156   8.383  71.036  1.00  0.00    -0.196 A  
HETATM   18 CL   UNL     1      -8.602   9.120  70.887  1.00  0.00    -0.256 Cl 
ENDBRANCH  10  11
ENDBRANCH   3  10
ENDBRANCH   2   3
TORSDOF 5
ENDMDL
MODEL      172
REMARK 921   NORMALIZED FREE ENERGY PREDICTED BY IDOCK:   -2.93 KCAL/MOL
REMARK 922        TOTAL FREE ENERGY PREDICTED BY IDOCK:   -4.21 KCAL/MOL
REMARK 923 INTER-LIGAND FREE ENERGY PREDICTED BY IDOCK:   -3.73 KCAL/MOL
REMARK 924 INTRA-LIGAND FREE ENERGY PREDICTED BY IDOCK:   -0.48 KCAL/MOL
REMARK 927      BINDING AFFINITY PREDICTED BY RF-SCORE:    0.00 PKD
ROOT
HETATM    1  C   UNL     1     -10.438   8.634  67.185  1.00  0.00    -0.289 C  
HETATM    2  O   UNL     1     -10.134   9.836  66.500  1.00  0.00    -0.222 OA 
ENDROOT
BRANCH   2   3
HETATM    3  P   UNL     1      -9.893  11.307  67.376  1.00  0.00    -0.185 P  
HETATM    4  S   UNL     1     -11.644  11.081  68.355  1.00  0.00    -0.261 S  
BRANCH   3   5
HETATM    5  N   UNL     1      -8.675  10.479  68.241  1.00  0.00    -0.130 NA 
HETATM    6  H   UNL     1      -8.959   9.908  69.036  1.00  0.00     0.000 HD 
BRANCH   5   7
HETATM    7  C   UNL     1      -7.247  10.536  67.912  1.00  0.00    -0.084 C  
HETATM    8  C   UNL     1      -6.556   9.224  68.291  1.00  0.00    -0.059 C  
HETATM    9  C   UNL     1      -6.986  10.830  66.431  1.00  0.00    -0.134 C  
ENDBRANCH   5   7
ENDBRANCH   3   5
BRANCH   3  10
HETATM   10  O   UNL     1      -9.652  12.780  68.252  1.00  0.00    -0.218 OA 
BRANCH  10  11
HETATM   11  C   UNL     1      -9.090  13.887  67.658  1.00  0.00    -0.197 A  
HETATM   12  C   UNL     1      -7.737  14.205  67.762  1.00  0.00    -0.175 A  
HETATM   13  C   UNL     1      -7.245  15.426  67.291  1.00  0.00    -0.229 A  
HETATM   14  C   UNL     1      -8.095  16.301  66.625  1.00  0.00    -0.288 A  
HETATM   15  C   UNL     1      -9.428  15.966  66.430  1.00  0.00    -0.324 A  
HETATM   16 CL   UNL     1      -7.482  17.794  66.035  1.00  0.00    -0.312 Cl 
HETATM   17  C   UNL     1      -9.930  14.766  66.959  1.00  0.00    -0.238 A  
HETATM   18 CL   UNL     1     -11.595  14.399  66.695  1.00  0.00    -0.379 Cl 
ENDBRANCH  10  11
ENDBRANCH   3  10
ENDBRANCH   2   3
TORSDOF 5
ENDMDL
MODEL      173
REMARK 921   NORMALIZED FREE ENERGY PREDICTED BY IDOCK:   -2.93 KCAL/MOL
REMARK 922        TOTAL FREE ENERGY PREDICTED BY IDOCK:   -4.20 KCAL/MOL
REMARK 923 INTER-LIGAND FREE ENERGY PREDICTED BY IDOCK:   -3.78 KCAL/MOL
REMARK 924 INTRA-LIGAND FREE ENERGY PREDICTED BY IDOCK:   -0.42 KCAL/MOL
REMARK 927      BINDING AFFINITY PREDICTED BY RF-SCORE:    0.00 PKD
ROOT
HETATM    1  C   UNL     1      -9.986   4.079  64.597  1.00  0.00    -0.199 C  
HETATM    2  O   UNL     1     -10.011   4.066  66.013  1.00  0.00    -0.193 OA 
ENDROOT
BRANCH   2   3
HETATM    3  P   UNL     1      -9.694   5.510  66.909  1.00  0.00    -0.183 P  
HETATM    4  S   UNL     1      -8.234   4.605  67.968  1.00  0.00    -0.091 S  
BRANCH   3   5
HETATM    5  N   UNL     1      -9.016   6.137  65.471  1.00  0.00    -0.339 NA 
HETATM    6  H   UNL     1      -9.459   5.888  64.587  1.00  0.00     0.000 HD 
BRANCH   5   7
HETATM    7  C   UNL     1      -7.839   7.010  65.427  1.00  0.00    -0.119 C  
HETATM    8  C   UNL     1      -6.639   6.263  64.840  1.00  0.00    -0.039 C  
HETATM    9  C   UNL     1      -8.075   8.291  64.620  1.00  0.00    -0.150 C  
ENDBRANCH   5   7
ENDBRANCH   3   5
BRANCH   3  10
HETATM   10  O   UNL     1      -9.379   6.956  67.805  1.00  0.00    -0.123 OA 
BRANCH  10  11
HETATM   11  C   UNL     1     -10.106   7.280  68.927  1.00  0.00    -0.180 A  
HETATM   12  C   UNL     1     -11.052   6.428  69.496  1.00  0.00    -0.460 A  
HETATM   13  C   UNL     1     -11.888   6.866  70.528  1.00  0.00    -0.385 A  
HETATM   14  C   UNL     1     -11.715   8.137  71.063  1.00  0.00    -0.274 A  
HETATM   15  C   UNL     1     -10.720   8.971  70.573  1.00  0.00    -0.285 A  
HETATM   16 CL   UNL     1     -12.736   8.665  72.341  1.00  0.00    -0.445 Cl 
HETATM   17  C   UNL     1      -9.925   8.549  69.496  1.00  0.00    -0.193 A  
HETATM   18 CL   UNL     1      -8.705   9.625  68.920  1.00  0.00    -0.127 Cl 
ENDBRANCH  10  11
ENDBRANCH   3  10
ENDBRANCH   2   3
TORSDOF 5
ENDMDL
MODEL      174
REMARK 921   NORMALIZED FREE ENERGY PREDICTED BY IDOCK:   -2.91 KCAL/MOL
REMARK 922        TOTAL FREE ENERGY PREDICTED BY IDOCK:   -4.18 KCAL/MOL
REMARK 923 INTER-LIGAND FREE ENERGY PREDICTED BY IDOCK:   -4.45 KCAL/MOL
REMARK 924 INTRA-LIGAND FREE ENERGY PREDICTED BY IDOCK:    0.27 KCAL/MOL
REMARK 927      BINDING AFFINITY PREDICTED BY RF-SCORE:    0.00 PKD
ROOT
HETATM    1  C   UNL     1      -9.822   4.113  70.057  1.00  0.00    -0.175 C  
HETATM    2  O   UNL     1     -10.715   5.111  69.596  1.00  0.00    -0.212 OA 
ENDROOT
BRANCH   2   3
HETATM    3  P   UNL     1     -10.127   6.674  69.147  1.00  0.00    -0.188 P  
HETATM    4  S   UNL     1     -10.438   6.295  67.189  1.00  0.00    -0.305 S  
BRANCH   3   5
HETATM    5  N   UNL     1     -11.569   7.301  69.816  1.00  0.00    -0.510 NA 
HETATM    6  H   UNL     1     -11.995   8.107  69.360  1.00  0.00     0.000 HD 
BRANCH   5   7
HETATM    7  C   UNL     1     -12.232   6.754  71.004  1.00  0.00    -0.352 C  
HETATM    8  C   UNL     1     -11.304   6.828  72.219  1.00  0.00    -0.310 C  
HETATM    9  C   UNL     1     -13.547   7.468  71.335  1.00  0.00    -0.397 C  
ENDBRANCH   5   7
ENDBRANCH   3   5
BRANCH   3  10
HETATM   10  O   UNL     1      -9.538   8.238  68.700  1.00  0.00    -0.147 OA 
BRANCH  10  11
HETATM   11  C   UNL     1     -10.201   9.388  69.063  1.00  0.00    -0.205 A  
HETATM   12  C   UNL     1     -10.454   9.736  70.390  1.00  0.00    -0.358 A  
HETATM   13  C   UNL     1     -11.279  10.820  70.705  1.00  0.00    -0.070 A  
HETATM   14  C   UNL     1     -11.783  11.622  69.688  1.00  0.00    -0.350 A  
HETATM   15  C   UNL     1     -11.471  11.348  68.364  1.00  0.00    -0.367 A  
HETATM   16 CL   UNL     1     -12.785  12.962  70.083  1.00  0.00     0.029 Cl 
HETATM   17  C   UNL     1     -10.693  10.223  68.050  1.00  0.00    -0.255 A  
HETATM   18 CL   UNL     1     -10.338   9.922  66.388  1.00  0.00    -0.278 Cl 
ENDBRANCH  10  11
ENDBRANCH   3  10
ENDBRANCH   2   3
TORSDOF 5
ENDMDL
MODEL      175
REMARK 921   NORMALIZED FREE ENERGY PREDICTED BY IDOCK:   -2.91 KCAL/MOL
REMARK 922        TOTAL FREE ENERGY PREDICTED BY IDOCK:   -4.18 KCAL/MOL
REMARK 923 INTER-LIGAND FREE ENERGY PREDICTED BY IDOCK:   -4.22 KCAL/MOL
REMARK 924 INTRA-LIGAND FREE ENERGY PREDICTED BY IDOCK:    0.05 KCAL/MOL
REMARK 927      BINDING AFFINITY PREDICTED BY RF-SCORE:    0.00 PKD
ROOT
HETATM    1  C   UNL     1     -10.777  13.588  64.291  1.00  0.00    -0.308 C  
HETATM    2  O   UNL     1     -11.321  14.334  65.365  1.00  0.00    -0.312 OA 
ENDROOT
BRANCH   2   3
HETATM    3  P   UNL     1     -10.946  13.917  67.000  1.00  0.00    -0.307 P  
HETATM    4  S   UNL     1     -12.141  12.292  66.923  1.00  0.00     0.275 S  
BRANCH   3   5
HETATM    5  N   UNL     1      -9.396  13.481  66.431  1.00  0.00    -0.421 NA 
HETATM    6  H   UNL     1      -8.981  14.051  65.694  1.00  0.00     0.000 HD 
BRANCH   5   7
HETATM    7  C   UNL     1      -8.623  12.341  66.935  1.00  0.00    -0.182 C  
HETATM    8  C   UNL     1      -9.086  11.043  66.270  1.00  0.00    -0.196 C  
HETATM    9  C   UNL     1      -7.114  12.502  66.722  1.00  0.00     0.335 C  
ENDBRANCH   5   7
ENDBRANCH   3   5
BRANCH   3  10
HETATM   10  O   UNL     1     -10.571  13.500  68.637  1.00  0.00    -0.244 OA 
BRANCH  10  11
HETATM   11  C   UNL     1     -11.305  13.994  69.691  1.00  0.00    -0.214 A  
HETATM   12  C   UNL     1     -12.319  13.273  70.320  1.00  0.00    -0.334 A  
HETATM   13  C   UNL     1     -13.152  13.876  71.268  1.00  0.00    -0.385 A  
HETATM   14  C   UNL     1     -12.911  15.187  71.662  1.00  0.00    -0.375 A  
HETATM   15  C   UNL     1     -11.851  15.897  71.115  1.00  0.00    -0.483 A  
HETATM   16 CL   UNL     1     -13.929  15.919  72.838  1.00  0.00    -0.591 Cl 
HETATM   17  C   UNL     1     -11.057  15.307  70.119  1.00  0.00    -0.293 A  
HETATM   18 CL   UNL     1      -9.755  16.233  69.467  1.00  0.00    -0.187 Cl 
ENDBRANCH  10  11
ENDBRANCH   3  10
ENDBRANCH   2   3
TORSDOF 5
ENDMDL
MODEL      176
REMARK 921   NORMALIZED FREE ENERGY PREDICTED BY IDOCK:   -2.90 KCAL/MOL
REMARK 922        TOTAL FREE ENERGY PREDICTED BY IDOCK:   -4.17 KCAL/MOL
REMARK 923 INTER-LIGAND FREE ENERGY PREDICTED BY IDOCK:   -3.84 KCAL/MOL
REMARK 924 INTRA-LIGAND FREE ENERGY PREDICTED BY IDOCK:   -0.33 KCAL/MOL
REMARK 927      BINDING AFFINITY PREDICTED BY RF-SCORE:    0.00 PKD
ROOT
HETATM    1  C   UNL     1     -10.335  12.627  65.216  1.00  0.00    -0.289 C  
HETATM    2  O   UNL     1     -10.512  12.503  66.616  1.00  0.00    -0.231 OA 
ENDROOT
BRANCH   2   3
HETATM    3  P   UNL     1      -9.863  11.144  67.465  1.00  0.00    -0.182 P  
HETATM    4  S   UNL     1      -7.971  11.761  67.129  1.00  0.00    -0.169 S  
BRANCH   3   5
HETATM    5  N   UNL     1     -10.434  11.886  68.893  1.00  0.00    -0.348 NA 
HETATM    6  H   UNL     1      -9.744  12.270  69.539  1.00  0.00     0.000 HD 
BRANCH   5   7
HETATM    7  C   UNL     1     -11.850  12.008  69.250  1.00  0.00    -0.318 C  
HETATM    8  C   UNL     1     -12.371  10.693  69.836  1.00  0.00    -0.304 C  
HETATM    9  C   UNL     1     -12.121  13.141  70.246  1.00  0.00    -0.399 C  
ENDBRANCH   5   7
ENDBRANCH   3   5
BRANCH   3  10
HETATM   10  O   UNL     1      -9.215   9.782  68.314  1.00  0.00    -0.129 OA 
BRANCH  10  11
HETATM   11  C   UNL     1      -9.374   8.499  67.844  1.00  0.00    -0.135 A  
HETATM   12  C   UNL     1      -8.931   8.085  66.588  1.00  0.00    -0.179 A  
HETATM   13  C   UNL     1      -9.267   6.825  66.085  1.00  0.00    -0.120 A  
HETATM   14  C   UNL     1      -9.975   5.931  66.879  1.00  0.00    -0.171 A  
HETATM   15  C   UNL     1     -10.351   6.289  68.167  1.00  0.00    -0.236 A  
HETATM   16 CL   UNL     1     -10.374   4.378  66.261  1.00  0.00    -0.219 Cl 
HETATM   17  C   UNL     1     -10.063   7.577  68.644  1.00  0.00    -0.184 A  
HETATM   18 CL   UNL     1     -10.556   7.974  70.250  1.00  0.00    -0.227 Cl 
ENDBRANCH  10  11
ENDBRANCH   3  10
ENDBRANCH   2   3
TORSDOF 5
ENDMDL
MODEL      177
REMARK 921   NORMALIZED FREE ENERGY PREDICTED BY IDOCK:   -2.89 KCAL/MOL
REMARK 922        TOTAL FREE ENERGY PREDICTED BY IDOCK:   -4.16 KCAL/MOL
REMARK 923 INTER-LIGAND FREE ENERGY PREDICTED BY IDOCK:   -4.52 KCAL/MOL
REMARK 924 INTRA-LIGAND FREE ENERGY PREDICTED BY IDOCK:    0.36 KCAL/MOL
REMARK 927      BINDING AFFINITY PREDICTED BY RF-SCORE:    0.00 PKD
ROOT
HETATM    1  C   UNL     1     -12.397  15.710  70.714  1.00  0.00    -0.419 C  
HETATM    2  O   UNL     1     -11.266  15.167  70.056  1.00  0.00    -0.247 OA 
ENDROOT
BRANCH   2   3
HETATM    3  P   UNL     1     -10.592  15.959  68.675  1.00  0.00    -0.285 P  
HETATM    4  S   UNL     1      -8.776  15.148  69.022  1.00  0.00    -0.215 S  
BRANCH   3   5
HETATM    5  N   UNL     1     -11.503  14.869  67.727  1.00  0.00    -0.330 NA 
HETATM    6  H   UNL     1     -12.519  14.893  67.817  1.00  0.00     0.000 HD 
BRANCH   5   7
HETATM    7  C   UNL     1     -10.919  13.901  66.792  1.00  0.00    -0.299 C  
HETATM    8  C   UNL     1     -10.965  12.490  67.383  1.00  0.00    -0.297 C  
HETATM    9  C   UNL     1     -11.614  13.895  65.427  1.00  0.00    -0.331 C  
ENDBRANCH   5   7
ENDBRANCH   3   5
BRANCH   3  10
HETATM   10  O   UNL     1      -9.917  16.752  67.293  1.00  0.00    -0.259 OA 
BRANCH  10  11
HETATM   11  C   UNL     1      -8.860  17.625  67.409  1.00  0.00    -0.235 A  
HETATM   12  C   UNL     1      -7.667  17.477  66.703  1.00  0.00    -0.289 A  
HETATM   13  C   UNL     1      -6.560  18.284  66.981  1.00  0.00    -0.203 A  
HETATM   14  C   UNL     1      -6.672  19.313  67.908  1.00  0.00    -0.229 A  
HETATM   15  C   UNL     1      -7.878  19.537  68.560  1.00  0.00    -0.382 A  
HETATM   16 CL   UNL     1      -5.313  20.312  68.236  1.00  0.00    -0.226 Cl 
HETATM   17  C   UNL     1      -8.967  18.684  68.321  1.00  0.00    -0.318 A  
HETATM   18 CL   UNL     1     -10.442  19.001  69.160  1.00  0.00     0.049 Cl 
ENDBRANCH  10  11
ENDBRANCH   3  10
ENDBRANCH   2   3
TORSDOF 5
ENDMDL
MODEL      178
REMARK 921   NORMALIZED FREE ENERGY PREDICTED BY IDOCK:   -2.87 KCAL/MOL
REMARK 922        TOTAL FREE ENERGY PREDICTED BY IDOCK:   -4.13 KCAL/MOL
REMARK 923 INTER-LIGAND FREE ENERGY PREDICTED BY IDOCK:   -4.28 KCAL/MOL
REMARK 924 INTRA-LIGAND FREE ENERGY PREDICTED BY IDOCK:    0.15 KCAL/MOL
REMARK 927      BINDING AFFINITY PREDICTED BY RF-SCORE:    0.00 PKD
ROOT
HETATM    1  C   UNL     1     -10.467  17.898  65.816  1.00  0.00    -0.196 C  
HETATM    2  O   UNL     1     -10.005  16.581  65.576  1.00  0.00    -0.541 OA 
ENDROOT
BRANCH   2   3
HETATM    3  P   UNL     1      -9.437  15.600  66.882  1.00  0.00    -0.258 P  
HETATM    4  S   UNL     1     -11.114  15.945  67.950  1.00  0.00    -0.283 S  
BRANCH   3   5
HETATM    5  N   UNL     1      -9.707  14.256  65.862  1.00  0.00    -0.451 NA 
HETATM    6  H   UNL     1      -9.046  13.481  65.910  1.00  0.00     0.000 HD 
BRANCH   5   7
HETATM    7  C   UNL     1     -10.828  14.146  64.923  1.00  0.00    -0.411 C  
HETATM    8  C   UNL     1     -10.552  13.057  63.883  1.00  0.00    -0.292 C  
HETATM    9  C   UNL     1     -12.161  13.849  65.617  1.00  0.00    -0.477 C  
ENDBRANCH   5   7
ENDBRANCH   3   5
BRANCH   3  10
HETATM   10  O   UNL     1      -8.867  14.619  68.188  1.00  0.00    -0.162 OA 
BRANCH  10  11
HETATM   11  C   UNL     1      -8.836  13.246  68.097  1.00  0.00    -0.187 A  
HETATM   12  C   UNL     1      -9.960  12.443  68.283  1.00  0.00    -0.224 A  
HETATM   13  C   UNL     1      -9.848  11.051  68.353  1.00  0.00    -0.186 A  
HETATM   14  C   UNL     1      -8.614  10.447  68.142  1.00  0.00    -0.125 A  
HETATM   15  C   UNL     1      -7.496  11.222  67.866  1.00  0.00    -0.094 A  
HETATM   16 CL   UNL     1      -8.484   8.735  68.215  1.00  0.00    -0.129 Cl 
HETATM   17  C   UNL     1      -7.603  12.622  67.858  1.00  0.00    -0.132 A  
HETATM   18 CL   UNL     1      -6.183  13.540  67.515  1.00  0.00    -0.135 Cl 
ENDBRANCH  10  11
ENDBRANCH   3  10
ENDBRANCH   2   3
TORSDOF 5
ENDMDL
MODEL      179
REMARK 921   NORMALIZED FREE ENERGY PREDICTED BY IDOCK:   -2.85 KCAL/MOL
REMARK 922        TOTAL FREE ENERGY PREDICTED BY IDOCK:   -4.10 KCAL/MOL
REMARK 923 INTER-LIGAND FREE ENERGY PREDICTED BY IDOCK:   -4.20 KCAL/MOL
REMARK 924 INTRA-LIGAND FREE ENERGY PREDICTED BY IDOCK:    0.09 KCAL/MOL
REMARK 927      BINDING AFFINITY PREDICTED BY RF-SCORE:    0.00 PKD
ROOT
HETATM    1  C   UNL     1      -6.476   9.024  66.301  1.00  0.00    -0.066 C  
HETATM    2  O   UNL     1      -7.318  10.161  66.237  1.00  0.00    -0.102 OA 
ENDROOT
BRANCH   2   3
HETATM    3  P   UNL     1      -8.721  10.270  67.242  1.00  0.00    -0.123 P  
HETATM    4  S   UNL     1      -7.691  11.247  68.677  1.00  0.00    -0.140 S  
BRANCH   3   5
HETATM    5  N   UNL     1      -9.314  11.416  66.121  1.00  0.00    -0.210 NA 
HETATM    6  H   UNL     1      -8.776  12.271  65.984  1.00  0.00     0.000 HD 
BRANCH   5   7
HETATM    7  C   UNL     1     -10.547  11.248  65.345  1.00  0.00    -0.250 C  
HETATM    8  C   UNL     1     -11.515  12.401  65.620  1.00  0.00    -0.412 C  
HETATM    9  C   UNL     1     -10.295  11.155  63.837  1.00  0.00    -0.441 C  
ENDBRANCH   5   7
ENDBRANCH   3   5
BRANCH   3  10
HETATM   10  O   UNL     1     -10.125  10.379  68.247  1.00  0.00    -0.146 OA 
BRANCH  10  11
HETATM   11  C   UNL     1     -10.424   9.406  69.173  1.00  0.00    -0.217 A  
HETATM   12  C   UNL     1     -10.578   9.669  70.534  1.00  0.00    -0.369 A  
HETATM   13  C   UNL     1     -10.708   8.629  71.459  1.00  0.00    -0.352 A  
HETATM   14  C   UNL     1     -10.778   7.315  71.013  1.00  0.00    -0.231 A  
HETATM   15  C   UNL     1     -10.717   7.034  69.655  1.00  0.00    -0.265 A  
HETATM   16 CL   UNL     1     -10.952   6.040  72.153  1.00  0.00    -0.298 Cl 
HETATM   17  C   UNL     1     -10.525   8.077  68.736  1.00  0.00    -0.173 A  
HETATM   18 CL   UNL     1     -10.449   7.676  67.059  1.00  0.00    -0.403 Cl 
ENDBRANCH  10  11
ENDBRANCH   3  10
ENDBRANCH   2   3
TORSDOF 5
ENDMDL
MODEL      180
REMARK 921   NORMALIZED FREE ENERGY PREDICTED BY IDOCK:   -2.84 KCAL/MOL
REMARK 922        TOTAL FREE ENERGY PREDICTED BY IDOCK:   -4.10 KCAL/MOL
REMARK 923 INTER-LIGAND FREE ENERGY PREDICTED BY IDOCK:   -3.70 KCAL/MOL
REMARK 924 INTRA-LIGAND FREE ENERGY PREDICTED BY IDOCK:   -0.40 KCAL/MOL
REMARK 927      BINDING AFFINITY PREDICTED BY RF-SCORE:    0.00 PKD
ROOT
HETATM    1  C   UNL     1     -10.681   5.012  66.955  1.00  0.00     0.004 C  
HETATM    2  O   UNL     1     -11.258   6.305  67.000  1.00  0.00    -0.336 OA 
ENDROOT
BRANCH   2   3
HETATM    3  P   UNL     1     -10.296   7.680  67.415  1.00  0.00    -0.301 P  
HETATM    4  S   UNL     1      -9.157   6.581  68.668  1.00  0.00    -0.127 S  
BRANCH   3   5
HETATM    5  N   UNL     1      -9.637   7.571  65.842  1.00  0.00    -0.413 NA 
HETATM    6  H   UNL     1     -10.278   7.398  65.068  1.00  0.00     0.000 HD 
BRANCH   5   7
HETATM    7  C   UNL     1      -8.210   7.710  65.535  1.00  0.00    -0.135 C  
HETATM    8  C   UNL     1      -7.577   6.338  65.291  1.00  0.00    -0.090 C  
HETATM    9  C   UNL     1      -7.945   8.606  64.320  1.00  0.00    -0.148 C  
ENDBRANCH   5   7
ENDBRANCH   3   5
BRANCH   3  10
HETATM   10  O   UNL     1      -9.334   9.057  67.830  1.00  0.00    -0.139 OA 
BRANCH  10  11
HETATM   11  C   UNL     1      -9.908  10.244  68.222  1.00  0.00    -0.146 A  
HETATM   12  C   UNL     1     -10.631  10.388  69.406  1.00  0.00    -0.267 A  
HETATM   13  C   UNL     1     -11.341  11.561  69.679  1.00  0.00    -0.329 A  
HETATM   14  C   UNL     1     -11.254  12.638  68.806  1.00  0.00    -0.280 A  
HETATM   15  C   UNL     1     -10.469  12.550  67.665  1.00  0.00    -0.228 A  
HETATM   16 CL   UNL     1     -12.118  14.083  69.154  1.00  0.00    -0.390 Cl 
HETATM   17  C   UNL     1      -9.807  11.349  67.365  1.00  0.00    -0.182 A  
HETATM   18 CL   UNL     1      -8.848  11.289  65.932  1.00  0.00    -0.193 Cl 
ENDBRANCH  10  11
ENDBRANCH   3  10
ENDBRANCH   2   3
TORSDOF 5
ENDMDL
MODEL      181
REMARK 921   NORMALIZED FREE ENERGY PREDICTED BY IDOCK:   -2.82 KCAL/MOL
REMARK 922        TOTAL FREE ENERGY PREDICTED BY IDOCK:   -4.07 KCAL/MOL
REMARK 923 INTER-LIGAND FREE ENERGY PREDICTED BY IDOCK:   -4.66 KCAL/MOL
REMARK 924 INTRA-LIGAND FREE ENERGY PREDICTED BY IDOCK:    0.59 KCAL/MOL
REMARK 927      BINDING AFFINITY PREDICTED BY RF-SCORE:    0.00 PKD
ROOT
HETATM    1  C   UNL     1      -9.732   5.278  68.291  1.00  0.00    -0.140 C  
HETATM    2  O   UNL     1     -10.611   6.268  68.792  1.00  0.00    -0.205 OA 
ENDROOT
BRANCH   2   3
HETATM    3  P   UNL     1     -10.012   7.827  69.240  1.00  0.00    -0.190 P  
HETATM    4  S   UNL     1     -10.350   8.556  67.388  1.00  0.00    -0.291 S  
BRANCH   3   5
HETATM    5  N   UNL     1     -11.438   8.002  70.164  1.00  0.00    -0.466 NA 
HETATM    6  H   UNL     1     -12.301   8.231  69.670  1.00  0.00     0.000 HD 
BRANCH   5   7
HETATM    7  C   UNL     1     -11.502   7.845  71.620  1.00  0.00    -0.263 C  
HETATM    8  C   UNL     1     -12.613   8.720  72.206  1.00  0.00    -0.460 C  
HETATM    9  C   UNL     1     -11.726   6.394  72.055  1.00  0.00    -0.376 C  
ENDBRANCH   5   7
ENDBRANCH   3   5
BRANCH   3  10
HETATM   10  O   UNL     1      -9.411   9.386  69.689  1.00  0.00    -0.167 OA 
BRANCH  10  11
HETATM   11  C   UNL     1      -9.993  10.543  69.223  1.00  0.00    -0.213 A  
HETATM   12  C   UNL     1     -11.305  10.910  69.518  1.00  0.00    -0.351 A  
HETATM   13  C   UNL     1     -11.909  12.000  68.884  1.00  0.00    -0.356 A  
HETATM   14  C   UNL     1     -11.166  12.791  68.016  1.00  0.00    -0.270 A  
HETATM   15  C   UNL     1      -9.830  12.497  67.775  1.00  0.00    -0.204 A  
HETATM   16 CL   UNL     1     -11.908  14.139  67.250  1.00  0.00    -0.430 Cl 
HETATM   17  C   UNL     1      -9.248  11.366  68.366  1.00  0.00    -0.183 A  
HETATM   18 CL   UNL     1      -7.587  11.041  68.030  1.00  0.00    -0.090 Cl 
ENDBRANCH  10  11
ENDBRANCH   3  10
ENDBRANCH   2   3
TORSDOF 5
ENDMDL
MODEL      182
REMARK 921   NORMALIZED FREE ENERGY PREDICTED BY IDOCK:   -2.82 KCAL/MOL
REMARK 922        TOTAL FREE ENERGY PREDICTED BY IDOCK:   -4.06 KCAL/MOL
REMARK 923 INTER-LIGAND FREE ENERGY PREDICTED BY IDOCK:   -3.62 KCAL/MOL
REMARK 924 INTRA-LIGAND FREE ENERGY PREDICTED BY IDOCK:   -0.44 KCAL/MOL
REMARK 927      BINDING AFFINITY PREDICTED BY RF-SCORE:    0.00 PKD
ROOT
HETATM    1  C   UNL     1     -10.068   8.412  72.544  1.00  0.00    -0.292 C  
HETATM    2  O   UNL     1      -8.875   8.937  71.989  1.00  0.00    -0.367 OA 
ENDROOT
BRANCH   2   3
HETATM    3  P   UNL     1      -8.745   9.205  70.286  1.00  0.00    -0.236 P  
HETATM    4  S   UNL     1      -6.763   9.562  70.434  1.00  0.00    -0.107 S  
BRANCH   3   5
HETATM    5  N   UNL     1      -8.983   7.523  70.102  1.00  0.00    -0.147 NA 
HETATM    6  H   UNL     1      -8.644   6.910  70.843  1.00  0.00     0.000 HD 
BRANCH   5   7
HETATM    7  C   UNL     1      -9.643   6.905  68.948  1.00  0.00    -0.139 C  
HETATM    8  C   UNL     1      -8.744   5.833  68.326  1.00  0.00    -0.111 C  
HETATM    9  C   UNL     1     -10.997   6.281  69.297  1.00  0.00    -0.435 C  
ENDBRANCH   5   7
ENDBRANCH   3   5
BRANCH   3  10
HETATM   10  O   UNL     1      -8.615   9.473  68.582  1.00  0.00    -0.117 OA 
BRANCH  10  11
HETATM   11  C   UNL     1      -9.182  10.573  67.981  1.00  0.00    -0.142 A  
HETATM   12  C   UNL     1      -9.929  11.523  68.677  1.00  0.00    -0.207 A  
HETATM   13  C   UNL     1     -10.630  12.526  68.001  1.00  0.00    -0.237 A  
HETATM   14  C   UNL     1     -10.510  12.641  66.621  1.00  0.00    -0.245 A  
HETATM   15  C   UNL     1      -9.700  11.761  65.916  1.00  0.00    -0.259 A  
HETATM   16 CL   UNL     1     -11.362  13.884  65.796  1.00  0.00    -0.303 Cl 
HETATM   17  C   UNL     1      -9.047  10.719  66.593  1.00  0.00    -0.159 A  
HETATM   18 CL   UNL     1      -8.057   9.649  65.670  1.00  0.00    -0.114 Cl 
ENDBRANCH  10  11
ENDBRANCH   3  10
ENDBRANCH   2   3
TORSDOF 5
ENDMDL
MODEL      183
REMARK 921   NORMALIZED FREE ENERGY PREDICTED BY IDOCK:   -2.81 KCAL/MOL
REMARK 922        TOTAL FREE ENERGY PREDICTED BY IDOCK:   -4.05 KCAL/MOL
REMARK 923 INTER-LIGAND FREE ENERGY PREDICTED BY IDOCK:   -3.57 KCAL/MOL
REMARK 924 INTRA-LIGAND FREE ENERGY PREDICTED BY IDOCK:   -0.49 KCAL/MOL
REMARK 927      BINDING AFFINITY PREDICTED BY RF-SCORE:    0.00 PKD
ROOT
HETATM    1  C   UNL     1      -9.300  16.226  66.136  1.00  0.00    -0.339 C  
HETATM    2  O   UNL     1      -9.418  15.727  67.456  1.00  0.00    -0.216 OA 
ENDROOT
BRANCH   2   3
HETATM    3  P   UNL     1      -8.735  14.196  67.878  1.00  0.00    -0.208 P  
HETATM    4  S   UNL     1      -7.163  15.079  68.785  1.00  0.00    -0.135 S  
BRANCH   3   5
HETATM    5  N   UNL     1     -10.006  14.051  69.010  1.00  0.00    -0.421 NA 
HETATM    6  H   UNL     1      -9.761  13.838  69.977  1.00  0.00     0.000 HD 
BRANCH   5   7
HETATM    7  C   UNL     1     -11.426  14.213  68.681  1.00  0.00    -0.299 C  
HETATM    8  C   UNL     1     -11.888  13.103  67.734  1.00  0.00    -0.392 C  
HETATM    9  C   UNL     1     -12.329  14.222  69.919  1.00  0.00    -0.377 C  
ENDBRANCH   5   7
ENDBRANCH   3   5
BRANCH   3  10
HETATM   10  O   UNL     1      -8.052  12.663  68.300  1.00  0.00    -0.152 OA 
BRANCH  10  11
HETATM   11  C   UNL     1      -8.046  11.610  67.414  1.00  0.00    -0.153 A  
HETATM   12  C   UNL     1      -8.986  11.464  66.395  1.00  0.00    -0.196 A  
HETATM   13  C   UNL     1      -9.045  10.294  65.632  1.00  0.00    -0.208 A  
HETATM   14  C   UNL     1      -8.097   9.296  65.824  1.00  0.00    -0.115 A  
HETATM   15  C   UNL     1      -7.097   9.458  66.772  1.00  0.00    -0.082 A  
HETATM   16 CL   UNL     1      -8.166   7.866  64.873  1.00  0.00    -0.145 Cl 
HETATM   17  C   UNL     1      -7.079  10.607  67.577  1.00  0.00    -0.089 A  
HETATM   18 CL   UNL     1      -5.818  10.758  68.746  1.00  0.00    -0.040 Cl 
ENDBRANCH  10  11
ENDBRANCH   3  10
ENDBRANCH   2   3
TORSDOF 5
ENDMDL
MODEL      184
REMARK 921   NORMALIZED FREE ENERGY PREDICTED BY IDOCK:   -2.81 KCAL/MOL
REMARK 922        TOTAL FREE ENERGY PREDICTED BY IDOCK:   -4.05 KCAL/MOL
REMARK 923 INTER-LIGAND FREE ENERGY PREDICTED BY IDOCK:   -4.19 KCAL/MOL
REMARK 924 INTRA-LIGAND FREE ENERGY PREDICTED BY IDOCK:    0.14 KCAL/MOL
REMARK 927      BINDING AFFINITY PREDICTED BY RF-SCORE:    0.00 PKD
ROOT
HETATM    1  C   UNL     1     -12.311  14.456  66.201  1.00  0.00    -0.314 C  
HETATM    2  O   UNL     1     -10.975  14.354  66.659  1.00  0.00    -0.306 OA 
ENDROOT
BRANCH   2   3
HETATM    3  P   UNL     1     -10.135  12.845  66.586  1.00  0.00    -0.254 P  
HETATM    4  S   UNL     1     -11.750  11.845  67.270  1.00  0.00    -0.166 S  
BRANCH   3   5
HETATM    5  N   UNL     1     -10.253  12.973  64.887  1.00  0.00    -0.451 NA 
HETATM    6  H   UNL     1      -9.954  13.846  64.453  1.00  0.00     0.000 HD 
BRANCH   5   7
HETATM    7  C   UNL     1     -10.755  11.908  64.012  1.00  0.00    -0.375 C  
HETATM    8  C   UNL     1     -12.033  12.358  63.300  1.00  0.00    -0.509 C  
HETATM    9  C   UNL     1      -9.730  11.462  62.965  1.00  0.00    -0.393 C  
ENDBRANCH   5   7
ENDBRANCH   3   5
BRANCH   3  10
HETATM   10  O   UNL     1      -9.294  11.334  66.513  1.00  0.00    -0.175 OA 
BRANCH  10  11
HETATM   11  C   UNL     1      -9.019  10.608  67.649  1.00  0.00    -0.139 A  
HETATM   12  C   UNL     1      -9.736   9.473  68.023  1.00  0.00    -0.168 A  
HETATM   13  C   UNL     1      -9.536   8.871  69.269  1.00  0.00    -0.162 A  
HETATM   14  C   UNL     1      -8.543   9.350  70.115  1.00  0.00    -0.212 A  
HETATM   15  C   UNL     1      -7.755  10.425  69.726  1.00  0.00    -0.126 A  
HETATM   16 CL   UNL     1      -8.291   8.598  71.639  1.00  0.00    -0.215 Cl 
HETATM   17  C   UNL     1      -8.002  11.064  68.501  1.00  0.00    -0.137 A  
HETATM   18 CL   UNL     1      -6.998  12.398  68.067  1.00  0.00    -0.087 Cl 
ENDBRANCH  10  11
ENDBRANCH   3  10
ENDBRANCH   2   3
TORSDOF 5
ENDMDL
MODEL      185
REMARK 921   NORMALIZED FREE ENERGY PREDICTED BY IDOCK:   -2.81 KCAL/MOL
REMARK 922        TOTAL FREE ENERGY PREDICTED BY IDOCK:   -4.05 KCAL/MOL
REMARK 923 INTER-LIGAND FREE ENERGY PREDICTED BY IDOCK:   -3.62 KCAL/MOL
REMARK 924 INTRA-LIGAND FREE ENERGY PREDICTED BY IDOCK:   -0.43 KCAL/MOL
REMARK 927      BINDING AFFINITY PREDICTED BY RF-SCORE:    0.00 PKD
ROOT
HETATM    1  C   UNL     1     -11.497  14.770  65.665  1.00  0.00    -0.327 C  
HETATM    2  O   UNL     1     -10.190  14.248  65.821  1.00  0.00    -0.305 OA 
ENDROOT
BRANCH   2   3
HETATM    3  P   UNL     1      -9.941  12.726  66.604  1.00  0.00    -0.254 P  
HETATM    4  S   UNL     1     -11.909  12.551  67.019  1.00  0.00    -0.241 S  
BRANCH   3   5
HETATM    5  N   UNL     1      -9.653  12.082  65.048  1.00  0.00    -0.432 NA 
HETATM    6  H   UNL     1      -8.819  12.394  64.550  1.00  0.00     0.000 HD 
BRANCH   5   7
HETATM    7  C   UNL     1     -10.528  11.111  64.383  1.00  0.00    -0.353 C  
HETATM    8  C   UNL     1     -11.411  11.808  63.345  1.00  0.00    -0.424 C  
HETATM    9  C   UNL     1      -9.753   9.979  63.701  1.00  0.00    -0.030 C  
ENDBRANCH   5   7
ENDBRANCH   3   5
BRANCH   3  10
HETATM   10  O   UNL     1      -9.692  11.204  67.388  1.00  0.00    -0.171 OA 
BRANCH  10  11
HETATM   11  C   UNL     1      -8.669  11.018  68.289  1.00  0.00    -0.144 A  
HETATM   12  C   UNL     1      -7.472  11.732  68.243  1.00  0.00    -0.103 A  
HETATM   13  C   UNL     1      -6.396  11.389  69.068  1.00  0.00    -0.063 A  
HETATM   14  C   UNL     1      -6.546  10.383  70.015  1.00  0.00    -0.137 A  
HETATM   15  C   UNL     1      -7.758   9.717  70.139  1.00  0.00    -0.188 A  
HETATM   16 CL   UNL     1      -5.225   9.975  71.036  1.00  0.00    -0.060 Cl 
HETATM   17  C   UNL     1      -8.814  10.024  69.268  1.00  0.00    -0.178 A  
HETATM   18 CL   UNL     1     -10.298   9.165  69.460  1.00  0.00    -0.209 Cl 
ENDBRANCH  10  11
ENDBRANCH   3  10
ENDBRANCH   2   3
TORSDOF 5
ENDMDL
MODEL      186
REMARK 921   NORMALIZED FREE ENERGY PREDICTED BY IDOCK:   -2.80 KCAL/MOL
REMARK 922        TOTAL FREE ENERGY PREDICTED BY IDOCK:   -4.05 KCAL/MOL
REMARK 923 INTER-LIGAND FREE ENERGY PREDICTED BY IDOCK:   -3.35 KCAL/MOL
REMARK 924 INTRA-LIGAND FREE ENERGY PREDICTED BY IDOCK:   -0.69 KCAL/MOL
REMARK 927      BINDING AFFINITY PREDICTED BY RF-SCORE:    0.00 PKD
ROOT
HETATM    1  C   UNL     1      -6.194   8.812  71.114  1.00  0.00    -0.051 C  
HETATM    2  O   UNL     1      -7.273   8.471  70.262  1.00  0.00    -0.045 OA 
ENDROOT
BRANCH   2   3
HETATM    3  P   UNL     1      -7.534   9.338  68.789  1.00  0.00    -0.076 P  
HETATM    4  S   UNL     1      -6.021   8.361  67.876  1.00  0.00    -0.048 S  
BRANCH   3   5
HETATM    5  N   UNL     1      -8.962   8.416  68.614  1.00  0.00    -0.140 NA 
HETATM    6  H   UNL     1      -9.106   7.924  67.732  1.00  0.00     0.000 HD 
BRANCH   5   7
HETATM    7  C   UNL     1      -9.992   8.287  69.649  1.00  0.00    -0.193 C  
HETATM    8  C   UNL     1     -10.906   9.515  69.652  1.00  0.00    -0.255 C  
HETATM    9  C   UNL     1     -10.848   7.027  69.486  1.00  0.00    -0.265 C  
ENDBRANCH   5   7
ENDBRANCH   3   5
BRANCH   3  10
HETATM   10  O   UNL     1      -7.795  10.206  67.315  1.00  0.00    -0.102 OA 
BRANCH  10  11
HETATM   11  C   UNL     1      -8.733  11.209  67.228  1.00  0.00    -0.139 A  
HETATM   12  C   UNL     1      -8.776  12.293  68.105  1.00  0.00    -0.186 A  
HETATM   13  C   UNL     1      -9.846  13.192  68.087  1.00  0.00    -0.228 A  
HETATM   14  C   UNL     1     -10.838  13.065  67.122  1.00  0.00    -0.260 A  
HETATM   15  C   UNL     1     -10.770  12.046  66.182  1.00  0.00    -0.312 A  
HETATM   16 CL   UNL     1     -12.144  14.182  67.096  1.00  0.00    -0.464 Cl 
HETATM   17  C   UNL     1      -9.726  11.110  66.243  1.00  0.00    -0.211 A  
HETATM   18 CL   UNL     1      -9.690   9.859  65.055  1.00  0.00    -0.377 Cl 
ENDBRANCH  10  11
ENDBRANCH   3  10
ENDBRANCH   2   3
TORSDOF 5
ENDMDL
MODEL      187
REMARK 921   NORMALIZED FREE ENERGY PREDICTED BY IDOCK:   -2.79 KCAL/MOL
REMARK 922        TOTAL FREE ENERGY PREDICTED BY IDOCK:   -4.03 KCAL/MOL
REMARK 923 INTER-LIGAND FREE ENERGY PREDICTED BY IDOCK:   -3.66 KCAL/MOL
REMARK 924 INTRA-LIGAND FREE ENERGY PREDICTED BY IDOCK:   -0.37 KCAL/MOL
REMARK 927      BINDING AFFINITY PREDICTED BY RF-SCORE:    0.00 PKD
ROOT
HETATM    1  C   UNL     1      -6.459   4.183  70.850  1.00  0.00    -0.026 C  
HETATM    2  O   UNL     1      -7.784   4.316  70.368  1.00  0.00    -0.048 OA 
ENDROOT
BRANCH   2   3
HETATM    3  P   UNL     1      -8.888   5.408  71.128  1.00  0.00    -0.138 P  
HETATM    4  S   UNL     1     -10.264   5.119  69.681  1.00  0.00    -0.239 S  
BRANCH   3   5
HETATM    5  N   UNL     1      -9.097   4.208  72.327  1.00  0.00    -0.114 NA 
HETATM    6  H   UNL     1      -8.360   4.096  73.022  1.00  0.00     0.000 HD 
BRANCH   5   7
HETATM    7  C   UNL     1     -10.268   3.331  72.419  1.00  0.00    -0.125 C  
HETATM    8  C   UNL     1      -9.857   1.867  72.245  1.00  0.00    -0.197 C  
HETATM    9  C   UNL     1     -11.026   3.484  73.742  1.00  0.00    -0.308 C  
ENDBRANCH   5   7
ENDBRANCH   3   5
BRANCH   3  10
HETATM   10  O   UNL     1      -9.992   6.501  71.890  1.00  0.00    -0.178 OA 
BRANCH  10  11
HETATM   11  C   UNL     1     -10.382   7.671  71.279  1.00  0.00    -0.198 A  
HETATM   12  C   UNL     1      -9.481   8.583  70.730  1.00  0.00    -0.213 A  
HETATM   13  C   UNL     1      -9.909   9.835  70.277  1.00  0.00    -0.296 A  
HETATM   14  C   UNL     1     -11.263  10.145  70.286  1.00  0.00    -0.318 A  
HETATM   15  C   UNL     1     -12.189   9.218  70.746  1.00  0.00    -0.192 A  
HETATM   16 CL   UNL     1     -11.785  11.680  69.715  1.00  0.00    -0.401 Cl 
HETATM   17  C   UNL     1     -11.748   7.987  71.256  1.00  0.00    -0.282 A  
HETATM   18 CL   UNL     1     -12.937   6.872  71.820  1.00  0.00    -0.380 Cl 
ENDBRANCH  10  11
ENDBRANCH   3  10
ENDBRANCH   2   3
TORSDOF 5
ENDMDL
MODEL      188
REMARK 921   NORMALIZED FREE ENERGY PREDICTED BY IDOCK:   -2.79 KCAL/MOL
REMARK 922        TOTAL FREE ENERGY PREDICTED BY IDOCK:   -4.03 KCAL/MOL
REMARK 923 INTER-LIGAND FREE ENERGY PREDICTED BY IDOCK:   -4.59 KCAL/MOL
REMARK 924 INTRA-LIGAND FREE ENERGY PREDICTED BY IDOCK:    0.56 KCAL/MOL
REMARK 927      BINDING AFFINITY PREDICTED BY RF-SCORE:    0.00 PKD
ROOT
HETATM    1  C   UNL     1     -12.045  14.555  69.766  1.00  0.00    -0.331 C  
HETATM    2  O   UNL     1     -12.180  13.404  68.951  1.00  0.00    -0.294 OA 
ENDROOT
BRANCH   2   3
HETATM    3  P   UNL     1     -10.824  12.369  68.666  1.00  0.00    -0.218 P  
HETATM    4  S   UNL     1     -11.586  10.940  69.872  1.00  0.00    -0.360 S  
BRANCH   3   5
HETATM    5  N   UNL     1     -11.450  12.144  67.092  1.00  0.00    -0.353 NA 
HETATM    6  H   UNL     1     -12.106  11.378  66.945  1.00  0.00     0.000 HD 
BRANCH   5   7
HETATM    7  C   UNL     1     -11.106  12.983  65.940  1.00  0.00    -0.280 C  
HETATM    8  C   UNL     1     -12.365  13.608  65.335  1.00  0.00    -0.510 C  
HETATM    9  C   UNL     1     -10.112  14.097  66.288  1.00  0.00    -0.308 C  
ENDBRANCH   5   7
ENDBRANCH   3   5
BRANCH   3  10
HETATM   10  O   UNL     1      -9.467  11.334  68.381  1.00  0.00    -0.179 OA 
BRANCH  10  11
HETATM   11  C   UNL     1      -9.624   9.983  68.175  1.00  0.00    -0.139 A  
HETATM   12  C   UNL     1     -10.341   9.451  67.103  1.00  0.00    -0.326 A  
HETATM   13  C   UNL     1     -10.621   8.083  67.030  1.00  0.00    -0.364 A  
HETATM   14  C   UNL     1     -10.101   7.221  67.988  1.00  0.00    -0.172 A  
HETATM   15  C   UNL     1      -9.309   7.716  69.016  1.00  0.00    -0.146 A  
HETATM   16 CL   UNL     1     -10.435   5.539  67.886  1.00  0.00    -0.256 Cl 
HETATM   17  C   UNL     1      -9.083   9.097  69.118  1.00  0.00    -0.144 A  
HETATM   18 CL   UNL     1      -8.097   9.662  70.417  1.00  0.00    -0.211 Cl 
ENDBRANCH  10  11
ENDBRANCH   3  10
ENDBRANCH   2   3
TORSDOF 5
ENDMDL
MODEL      189
REMARK 921   NORMALIZED FREE ENERGY PREDICTED BY IDOCK:   -2.79 KCAL/MOL
REMARK 922        TOTAL FREE ENERGY PREDICTED BY IDOCK:   -4.02 KCAL/MOL
REMARK 923 INTER-LIGAND FREE ENERGY PREDICTED BY IDOCK:   -3.71 KCAL/MOL
REMARK 924 INTRA-LIGAND FREE ENERGY PREDICTED BY IDOCK:   -0.31 KCAL/MOL
REMARK 927      BINDING AFFINITY PREDICTED BY RF-SCORE:    0.00 PKD
ROOT
HETATM    1  C   UNL     1     -12.308  12.085  70.427  1.00  0.00    -0.233 C  
HETATM    2  O   UNL     1     -11.279  12.246  69.467  1.00  0.00    -0.208 OA 
ENDROOT
BRANCH   2   3
HETATM    3  P   UNL     1     -10.914  10.976  68.352  1.00  0.00    -0.281 P  
HETATM    4  S   UNL     1     -11.896   9.621  69.480  1.00  0.00     0.497 S  
BRANCH   3   5
HETATM    5  N   UNL     1     -12.031  11.717  67.293  1.00  0.00    -0.602 NA 
HETATM    6  H   UNL     1     -12.851  11.179  67.014  1.00  0.00     0.000 HD 
BRANCH   5   7
HETATM    7  C   UNL     1     -11.887  13.075  66.760  1.00  0.00    -0.388 C  
HETATM    8  C   UNL     1     -10.415  13.495  66.753  1.00  0.00    -0.273 C  
HETATM    9  C   UNL     1     -12.456  13.226  65.346  1.00  0.00    -0.543 C  
ENDBRANCH   5   7
ENDBRANCH   3   5
BRANCH   3  10
HETATM   10  O   UNL     1     -10.547   9.706  67.236  1.00  0.00    -0.258 OA 
BRANCH  10  11
HETATM   11  C   UNL     1      -9.669   9.895  66.193  1.00  0.00    -0.236 A  
HETATM   12  C   UNL     1     -10.080  10.167  64.889  1.00  0.00    -0.277 A  
HETATM   13  C   UNL     1      -9.165  10.179  63.832  1.00  0.00    -0.322 A  
HETATM   14  C   UNL     1      -7.810  10.011  64.092  1.00  0.00    -0.144 A  
HETATM   15  C   UNL     1      -7.367   9.828  65.395  1.00  0.00    -0.118 A  
HETATM   16 CL   UNL     1      -6.687  10.041  62.791  1.00  0.00    -0.119 Cl 
HETATM   17  C   UNL     1      -8.297   9.755  66.444  1.00  0.00    -0.120 A  
HETATM   18 CL   UNL     1      -7.695   9.521  68.044  1.00  0.00    -0.087 Cl 
ENDBRANCH  10  11
ENDBRANCH   3  10
ENDBRANCH   2   3
TORSDOF 5
ENDMDL
MODEL      190
REMARK 921   NORMALIZED FREE ENERGY PREDICTED BY IDOCK:   -2.76 KCAL/MOL
REMARK 922        TOTAL FREE ENERGY PREDICTED BY IDOCK:   -3.99 KCAL/MOL
REMARK 923 INTER-LIGAND FREE ENERGY PREDICTED BY IDOCK:   -3.55 KCAL/MOL
REMARK 924 INTRA-LIGAND FREE ENERGY PREDICTED BY IDOCK:   -0.44 KCAL/MOL
REMARK 927      BINDING AFFINITY PREDICTED BY RF-SCORE:    0.00 PKD
ROOT
HETATM    1  C   UNL     1     -11.815  12.257  65.043  1.00  0.00    -0.357 C  
HETATM    2  O   UNL     1     -10.787  11.367  64.646  1.00  0.00    -0.317 OA 
ENDROOT
BRANCH   2   3
HETATM    3  P   UNL     1      -9.965  10.398  65.819  1.00  0.00    -0.259 P  
HETATM    4  S   UNL     1      -8.311  10.299  64.667  1.00  0.00    -0.158 S  
BRANCH   3   5
HETATM    5  N   UNL     1      -9.877  11.808  66.779  1.00  0.00    -0.196 NA 
HETATM    6  H   UNL     1     -10.727  12.119  67.249  1.00  0.00     0.000 HD 
BRANCH   5   7
HETATM    7  C   UNL     1      -8.658  12.600  66.972  1.00  0.00    -0.181 C  
HETATM    8  C   UNL     1      -8.969  14.096  66.878  1.00  0.00    -0.247 C  
HETATM    9  C   UNL     1      -7.966  12.316  68.309  1.00  0.00    -0.163 C  
ENDBRANCH   5   7
ENDBRANCH   3   5
BRANCH   3  10
HETATM   10  O   UNL     1      -9.144   9.428  66.993  1.00  0.00    -0.132 OA 
BRANCH  10  11
HETATM   11  C   UNL     1      -9.286   8.060  67.023  1.00  0.00    -0.147 A  
HETATM   12  C   UNL     1     -10.513   7.416  66.869  1.00  0.00    -0.379 A  
HETATM   13  C   UNL     1     -10.636   6.040  67.079  1.00  0.00    -0.385 A  
HETATM   14  C   UNL     1      -9.505   5.280  67.354  1.00  0.00    -0.127 A  
HETATM   15  C   UNL     1      -8.258   5.886  67.424  1.00  0.00    -0.105 A  
HETATM   16 CL   UNL     1      -9.660   3.586  67.598  1.00  0.00    -0.231 Cl 
HETATM   17  C   UNL     1      -8.150   7.277  67.273  1.00  0.00    -0.112 A  
HETATM   18 CL   UNL     1      -6.578   7.982  67.373  1.00  0.00    -0.057 Cl 
ENDBRANCH  10  11
ENDBRANCH   3  10
ENDBRANCH   2   3
TORSDOF 5
ENDMDL
MODEL      191
REMARK 921   NORMALIZED FREE ENERGY PREDICTED BY IDOCK:   -2.76 KCAL/MOL
REMARK 922        TOTAL FREE ENERGY PREDICTED BY IDOCK:   -3.98 KCAL/MOL
REMARK 923 INTER-LIGAND FREE ENERGY PREDICTED BY IDOCK:   -3.77 KCAL/MOL
REMARK 924 INTRA-LIGAND FREE ENERGY PREDICTED BY IDOCK:   -0.22 KCAL/MOL
REMARK 927      BINDING AFFINITY PREDICTED BY RF-SCORE:    0.00 PKD
ROOT
HETATM    1  C   UNL     1      -6.515   4.927  72.376  1.00  0.00    -0.042 C  
HETATM    2  O   UNL     1      -6.396   6.185  71.735  1.00  0.00    -0.043 OA 
ENDROOT
BRANCH   2   3
HETATM    3  P   UNL     1      -7.499   7.465  72.105  1.00  0.00    -0.085 P  
HETATM    4  S   UNL     1      -6.225   8.251  73.460  1.00  0.00    -0.108 S  
BRANCH   3   5
HETATM    5  N   UNL     1      -7.121   8.104  70.566  1.00  0.00    -0.040 NA 
HETATM    6  H   UNL     1      -6.422   8.846  70.517  1.00  0.00     0.000 HD 
BRANCH   5   7
HETATM    7  C   UNL     1      -7.735   7.655  69.313  1.00  0.00    -0.104 C  
HETATM    8  C   UNL     1      -8.101   8.854  68.435  1.00  0.00    -0.109 C  
HETATM    9  C   UNL     1      -6.836   6.706  68.514  1.00  0.00    -0.070 C  
ENDBRANCH   5   7
ENDBRANCH   3   5
BRANCH   3  10
HETATM   10  O   UNL     1      -8.602   8.745  72.475  1.00  0.00    -0.403 OA 
BRANCH  10  11
HETATM   11  C   UNL     1      -9.931   8.674  72.122  1.00  0.00    -0.316 A  
HETATM   12  C   UNL     1     -10.473   9.375  71.045  1.00  0.00    -0.392 A  
HETATM   13  C   UNL     1     -11.854   9.411  70.830  1.00  0.00    -0.365 A  
HETATM   14  C   UNL     1     -12.697   8.663  71.642  1.00  0.00    -0.341 A  
HETATM   15  C   UNL     1     -12.172   7.886  72.666  1.00  0.00    -0.179 A  
HETATM   16 CL   UNL     1     -14.393   8.698  71.364  1.00  0.00    -0.399 Cl 
HETATM   17  C   UNL     1     -10.791   7.902  72.915  1.00  0.00    -0.386 A  
HETATM   18 CL   UNL     1     -10.190   6.924  74.203  1.00  0.00    -0.382 Cl 
ENDBRANCH  10  11
ENDBRANCH   3  10
ENDBRANCH   2   3
TORSDOF 5
ENDMDL
MODEL      192
REMARK 921   NORMALIZED FREE ENERGY PREDICTED BY IDOCK:   -2.75 KCAL/MOL
REMARK 922        TOTAL FREE ENERGY PREDICTED BY IDOCK:   -3.98 KCAL/MOL
REMARK 923 INTER-LIGAND FREE ENERGY PREDICTED BY IDOCK:   -3.43 KCAL/MOL
REMARK 924 INTRA-LIGAND FREE ENERGY PREDICTED BY IDOCK:   -0.55 KCAL/MOL
REMARK 927      BINDING AFFINITY PREDICTED BY RF-SCORE:    0.00 PKD
ROOT
HETATM    1  C   UNL     1     -10.762  14.720  68.929  1.00  0.00    -0.252 C  
HETATM    2  O   UNL     1     -11.538  13.535  68.929  1.00  0.00    -0.276 OA 
ENDROOT
BRANCH   2   3
HETATM    3  P   UNL     1     -10.772  11.987  69.013  1.00  0.00    -0.003 P  
HETATM    4  S   UNL     1     -11.872  11.464  70.623  1.00  0.00    -0.094 S  
BRANCH   3   5
HETATM    5  N   UNL     1     -11.647  11.586  67.602  1.00  0.00    -0.515 NA 
HETATM    6  H   UNL     1     -12.478  11.003  67.706  1.00  0.00     0.000 HD 
BRANCH   5   7
HETATM    7  C   UNL     1     -11.281  12.025  66.252  1.00  0.00    -0.342 C  
HETATM    8  C   UNL     1     -12.359  12.948  65.677  1.00  0.00    -0.482 C  
HETATM    9  C   UNL     1      -9.929  12.745  66.204  1.00  0.00    -0.272 C  
ENDBRANCH   5   7
ENDBRANCH   3   5
BRANCH   3  10
HETATM   10  O   UNL     1     -10.006  10.438  69.097  1.00  0.00    -0.202 OA 
BRANCH  10  11
HETATM   11  C   UNL     1      -8.830  10.180  68.430  1.00  0.00    -0.123 A  
HETATM   12  C   UNL     1      -7.617  10.784  68.758  1.00  0.00    -0.113 A  
HETATM   13  C   UNL     1      -6.490  10.625  67.946  1.00  0.00    -0.059 A  
HETATM   14  C   UNL     1      -6.547   9.779  66.845  1.00  0.00    -0.067 A  
HETATM   15  C   UNL     1      -7.719   9.097  66.549  1.00  0.00    -0.096 A  
HETATM   16 CL   UNL     1      -5.154   9.577  65.858  1.00  0.00    -0.035 Cl 
HETATM   17  C   UNL     1      -8.865   9.308  67.332  1.00  0.00    -0.117 A  
HETATM   18 CL   UNL     1     -10.298   8.439  66.920  1.00  0.00    -0.381 Cl 
ENDBRANCH  10  11
ENDBRANCH   3  10
ENDBRANCH   2   3
TORSDOF 5
ENDMDL
MODEL      193
REMARK 921   NORMALIZED FREE ENERGY PREDICTED BY IDOCK:   -2.73 KCAL/MOL
REMARK 922        TOTAL FREE ENERGY PREDICTED BY IDOCK:   -3.95 KCAL/MOL
REMARK 923 INTER-LIGAND FREE ENERGY PREDICTED BY IDOCK:   -4.87 KCAL/MOL
REMARK 924 INTRA-LIGAND FREE ENERGY PREDICTED BY IDOCK:    0.92 KCAL/MOL
REMARK 927      BINDING AFFINITY PREDICTED BY RF-SCORE:    0.00 PKD
ROOT
HETATM    1  C   UNL     1      -7.396  15.056  69.365  1.00  0.00    -0.194 C  
HETATM    2  O   UNL     1      -8.254  15.151  68.243  1.00  0.00    -0.136 OA 
ENDROOT
BRANCH   2   3
HETATM    3  P   UNL     1      -9.391  13.894  67.900  1.00  0.00    -0.224 P  
HETATM    4  S   UNL     1      -8.015  12.465  68.277  1.00  0.00    -0.158 S  
BRANCH   3   5
HETATM    5  N   UNL     1     -10.154  14.316  69.369  1.00  0.00    -0.426 NA 
HETATM    6  H   UNL     1     -10.282  13.584  70.067  1.00  0.00     0.000 HD 
BRANCH   5   7
HETATM    7  C   UNL     1     -10.636  15.663  69.690  1.00  0.00    -0.283 C  
HETATM    8  C   UNL     1     -11.567  16.177  68.588  1.00  0.00    -0.283 C  
HETATM    9  C   UNL     1     -11.368  15.732  71.034  1.00  0.00    -0.437 C  
ENDBRANCH   5   7
ENDBRANCH   3   5
BRANCH   3  10
HETATM   10  O   UNL     1     -10.528  12.636  67.556  1.00  0.00    -0.218 OA 
BRANCH  10  11
HETATM   11  C   UNL     1     -11.029  11.827  68.550  1.00  0.00    -0.227 A  
HETATM   12  C   UNL     1     -11.814  12.303  69.599  1.00  0.00    -0.393 A  
HETATM   13  C   UNL     1     -12.154  11.479  70.677  1.00  0.00    -0.450 A  
HETATM   14  C   UNL     1     -11.784  10.140  70.664  1.00  0.00    -0.338 A  
HETATM   15  C   UNL     1     -11.078   9.621  69.587  1.00  0.00    -0.223 A  
HETATM   16 CL   UNL     1     -12.216   9.128  71.984  1.00  0.00    -0.447 Cl 
HETATM   17  C   UNL     1     -10.687  10.467  68.538  1.00  0.00    -0.221 A  
HETATM   18 CL   UNL     1      -9.806   9.775  67.225  1.00  0.00    -0.216 Cl 
ENDBRANCH  10  11
ENDBRANCH   3  10
ENDBRANCH   2   3
TORSDOF 5
ENDMDL
MODEL      194
REMARK 921   NORMALIZED FREE ENERGY PREDICTED BY IDOCK:   -2.73 KCAL/MOL
REMARK 922        TOTAL FREE ENERGY PREDICTED BY IDOCK:   -3.95 KCAL/MOL
REMARK 923 INTER-LIGAND FREE ENERGY PREDICTED BY IDOCK:   -3.54 KCAL/MOL
REMARK 924 INTRA-LIGAND FREE ENERGY PREDICTED BY IDOCK:   -0.41 KCAL/MOL
REMARK 927      BINDING AFFINITY PREDICTED BY RF-SCORE:    0.00 PKD
ROOT
HETATM    1  C   UNL     1      -6.074   5.519  66.924  1.00  0.00    -0.030 C  
HETATM    2  O   UNL     1      -6.680   6.374  67.877  1.00  0.00    -0.059 OA 
ENDROOT
BRANCH   2   3
HETATM    3  P   UNL     1      -8.137   7.222  67.491  1.00  0.00    -0.114 P  
HETATM    4  S   UNL     1      -7.126   8.585  66.398  1.00  0.00    -0.079 S  
BRANCH   3   5
HETATM    5  N   UNL     1      -8.527   5.898  66.486  1.00  0.00    -0.111 NA 
HETATM    6  H   UNL     1      -8.076   5.843  65.573  1.00  0.00     0.000 HD 
BRANCH   5   7
HETATM    7  C   UNL     1      -9.469   4.834  66.851  1.00  0.00    -0.155 C  
HETATM    8  C   UNL     1      -9.854   4.943  68.328  1.00  0.00    -0.198 C  
HETATM    9  C   UNL     1     -10.742   4.846  65.999  1.00  0.00    -0.247 C  
ENDBRANCH   5   7
ENDBRANCH   3   5
BRANCH   3  10
HETATM   10  O   UNL     1      -9.595   8.071  67.107  1.00  0.00    -0.153 OA 
BRANCH  10  11
HETATM   11  C   UNL     1     -10.100   9.047  67.935  1.00  0.00    -0.197 A  
HETATM   12  C   UNL     1     -10.241   8.882  69.313  1.00  0.00    -0.214 A  
HETATM   13  C   UNL     1     -10.916   9.830  70.087  1.00  0.00    -0.339 A  
HETATM   14  C   UNL     1     -11.375  11.002  69.497  1.00  0.00    -0.287 A  
HETATM   15  C   UNL     1     -11.167  11.229  68.143  1.00  0.00    -0.351 A  
HETATM   16 CL   UNL     1     -12.192  12.171  70.456  1.00  0.00    -0.433 Cl 
HETATM   17  C   UNL     1     -10.543  10.246  67.359  1.00  0.00    -0.270 A  
HETATM   18 CL   UNL     1     -10.313  10.575  65.681  1.00  0.00    -0.306 Cl 
ENDBRANCH  10  11
ENDBRANCH   3  10
ENDBRANCH   2   3
TORSDOF 5
ENDMDL
MODEL      195
REMARK 921   NORMALIZED FREE ENERGY PREDICTED BY IDOCK:   -2.72 KCAL/MOL
REMARK 922        TOTAL FREE ENERGY PREDICTED BY IDOCK:   -3.94 KCAL/MOL
REMARK 923 INTER-LIGAND FREE ENERGY PREDICTED BY IDOCK:   -4.75 KCAL/MOL
REMARK 924 INTRA-LIGAND FREE ENERGY PREDICTED BY IDOCK:    0.81 KCAL/MOL
REMARK 927      BINDING AFFINITY PREDICTED BY RF-SCORE:    0.00 PKD
ROOT
HETATM    1  C   UNL     1     -11.415  11.738  63.609  1.00  0.00    -0.431 C  
HETATM    2  O   UNL     1     -10.441  12.018  64.598  1.00  0.00    -0.272 OA 
ENDROOT
BRANCH   2   3
HETATM    3  P   UNL     1     -10.396  13.565  65.371  1.00  0.00    -0.298 P  
HETATM    4  S   UNL     1     -12.075  14.156  64.420  1.00  0.00    -0.428 S  
BRANCH   3   5
HETATM    5  N   UNL     1     -10.840  12.752  66.806  1.00  0.00    -0.260 NA 
HETATM    6  H   UNL     1     -11.797  12.864  67.141  1.00  0.00     0.000 HD 
BRANCH   5   7
HETATM    7  C   UNL     1      -9.935  11.902  67.587  1.00  0.00    -0.189 C  
HETATM    8  C   UNL     1     -10.598  11.474  68.898  1.00  0.00    -0.236 C  
HETATM    9  C   UNL     1      -9.482  10.653  66.825  1.00  0.00    -0.189 C  
ENDBRANCH   5   7
ENDBRANCH   3   5
BRANCH   3  10
HETATM   10  O   UNL     1     -10.350  15.112  66.144  1.00  0.00    -0.275 OA 
BRANCH  10  11
HETATM   11  C   UNL     1     -10.611  15.252  67.488  1.00  0.00    -0.273 A  
HETATM   12  C   UNL     1     -11.859  14.996  68.054  1.00  0.00    -0.266 A  
HETATM   13  C   UNL     1     -12.125  15.318  69.389  1.00  0.00    -0.301 A  
HETATM   14  C   UNL     1     -11.108  15.816  70.194  1.00  0.00    -0.352 A  
HETATM   15  C   UNL     1      -9.833  15.996  69.675  1.00  0.00    -0.196 A  
HETATM   16 CL   UNL     1     -11.436  16.197  71.837  1.00  0.00    -0.435 Cl 
HETATM   17  C   UNL     1      -9.587  15.729  68.320  1.00  0.00    -0.201 A  
HETATM   18 CL   UNL     1      -7.987  15.975  67.723  1.00  0.00    -0.146 Cl 
ENDBRANCH  10  11
ENDBRANCH   3  10
ENDBRANCH   2   3
TORSDOF 5
ENDMDL
MODEL      196
REMARK 921   NORMALIZED FREE ENERGY PREDICTED BY IDOCK:   -2.72 KCAL/MOL
REMARK 922        TOTAL FREE ENERGY PREDICTED BY IDOCK:   -3.93 KCAL/MOL
REMARK 923 INTER-LIGAND FREE ENERGY PREDICTED BY IDOCK:   -3.32 KCAL/MOL
REMARK 924 INTRA-LIGAND FREE ENERGY PREDICTED BY IDOCK:   -0.61 KCAL/MOL
REMARK 927      BINDING AFFINITY PREDICTED BY RF-SCORE:    0.00 PKD
ROOT
HETATM    1  C   UNL     1      -6.519   4.307  74.024  1.00  0.00    -0.048 C  
HETATM    2  O   UNL     1      -7.599   3.564  73.487  1.00  0.00    -0.059 OA 
ENDROOT
BRANCH   2   3
HETATM    3  P   UNL     1      -8.929   4.371  72.734  1.00  0.00    -0.114 P  
HETATM    4  S   UNL     1     -10.069   4.163  74.387  1.00  0.00    -0.209 S  
BRANCH   3   5
HETATM    5  N   UNL     1      -8.015   5.807  72.880  1.00  0.00    -0.107 NA 
HETATM    6  H   UNL     1      -6.999   5.732  72.825  1.00  0.00     0.000 HD 
BRANCH   5   7
HETATM    7  C   UNL     1      -8.596   7.138  73.078  1.00  0.00    -0.121 C  
HETATM    8  C   UNL     1      -8.343   7.626  74.507  1.00  0.00    -0.245 C  
HETATM    9  C   UNL     1      -8.056   8.179  72.092  1.00  0.00    -0.182 C  
ENDBRANCH   5   7
ENDBRANCH   3   5
BRANCH   3  10
HETATM   10  O   UNL     1     -10.260   5.179  71.979  1.00  0.00    -0.190 OA 
BRANCH  10  11
HETATM   11  C   UNL     1     -10.400   5.210  70.610  1.00  0.00    -0.235 A  
HETATM   12  C   UNL     1      -9.882   4.228  69.767  1.00  0.00    -0.258 A  
HETATM   13  C   UNL     1      -9.897   4.390  68.378  1.00  0.00    -0.132 A  
HETATM   14  C   UNL     1     -10.519   5.500  67.820  1.00  0.00    -0.180 A  
HETATM   15  C   UNL     1     -11.121   6.447  68.637  1.00  0.00    -0.393 A  
HETATM   16 CL   UNL     1     -10.547   5.687  66.111  1.00  0.00    -0.145 Cl 
HETATM   17  C   UNL     1     -11.049   6.311  70.032  1.00  0.00    -0.388 A  
HETATM   18 CL   UNL     1     -11.808   7.518  71.003  1.00  0.00    -0.318 Cl 
ENDBRANCH  10  11
ENDBRANCH   3  10
ENDBRANCH   2   3
TORSDOF 5
ENDMDL
MODEL      197
REMARK 921   NORMALIZED FREE ENERGY PREDICTED BY IDOCK:   -2.72 KCAL/MOL
REMARK 922        TOTAL FREE ENERGY PREDICTED BY IDOCK:   -3.93 KCAL/MOL
REMARK 923 INTER-LIGAND FREE ENERGY PREDICTED BY IDOCK:   -4.90 KCAL/MOL
REMARK 924 INTRA-LIGAND FREE ENERGY PREDICTED BY IDOCK:    0.97 KCAL/MOL
REMARK 927      BINDING AFFINITY PREDICTED BY RF-SCORE:    0.00 PKD
ROOT
HETATM    1  C   UNL     1     -11.163  13.196  64.724  1.00  0.00    -0.324 C  
HETATM    2  O   UNL     1     -11.667  14.242  65.535  1.00  0.00    -0.337 OA 
ENDROOT
BRANCH   2   3
HETATM    3  P   UNL     1     -10.592  15.220  66.471  1.00  0.00    -0.310 P  
HETATM    4  S   UNL     1     -11.709  14.965  68.133  1.00  0.00    -0.282 S  
BRANCH   3   5
HETATM    5  N   UNL     1      -9.477  13.931  66.360  1.00  0.00    -0.385 NA 
HETATM    6  H   UNL     1      -9.127  13.682  65.435  1.00  0.00     0.000 HD 
BRANCH   5   7
HETATM    7  C   UNL     1      -8.991  13.160  67.508  1.00  0.00    -0.197 C  
HETATM    8  C   UNL     1      -8.462  14.096  68.598  1.00  0.00    -0.120 C  
HETATM    9  C   UNL     1     -10.063  12.245  68.111  1.00  0.00    -0.211 C  
ENDBRANCH   5   7
ENDBRANCH   3   5
BRANCH   3  10
HETATM   10  O   UNL     1      -9.516  16.200  67.407  1.00  0.00    -0.224 OA 
BRANCH  10  11
HETATM   11  C   UNL     1      -8.811  17.237  66.840  1.00  0.00    -0.240 A  
HETATM   12  C   UNL     1      -7.587  17.066  66.195  1.00  0.00    -0.280 A  
HETATM   13  C   UNL     1      -6.825  18.166  65.789  1.00  0.00    -0.305 A  
HETATM   14  C   UNL     1      -7.332  19.451  65.945  1.00  0.00    -0.287 A  
HETATM   15  C   UNL     1      -8.588  19.642  66.504  1.00  0.00    -0.387 A  
HETATM   16 CL   UNL     1      -6.399  20.799  65.432  1.00  0.00    -0.282 Cl 
HETATM   17  C   UNL     1      -9.322  18.537  66.965  1.00  0.00    -0.288 A  
HETATM   18 CL   UNL     1     -10.875  18.829  67.658  1.00  0.00    -0.446 Cl 
ENDBRANCH  10  11
ENDBRANCH   3  10
ENDBRANCH   2   3
TORSDOF 5
ENDMDL
MODEL      198
REMARK 921   NORMALIZED FREE ENERGY PREDICTED BY IDOCK:   -2.71 KCAL/MOL
REMARK 922        TOTAL FREE ENERGY PREDICTED BY IDOCK:   -3.93 KCAL/MOL
REMARK 923 INTER-LIGAND FREE ENERGY PREDICTED BY IDOCK:   -3.43 KCAL/MOL
REMARK 924 INTRA-LIGAND FREE ENERGY PREDICTED BY IDOCK:   -0.50 KCAL/MOL
REMARK 927      BINDING AFFINITY PREDICTED BY RF-SCORE:    0.00 PKD
ROOT
HETATM    1  C   UNL     1      -9.701   3.260  64.405  1.00  0.00    -0.163 C  
HETATM    2  O   UNL     1     -10.086   4.360  65.210  1.00  0.00    -0.204 OA 
ENDROOT
BRANCH   2   3
HETATM    3  P   UNL     1      -9.685   4.399  66.892  1.00  0.00    -0.175 P  
HETATM    4  S   UNL     1      -9.081   2.473  66.854  1.00  0.00    -0.086 S  
BRANCH   3   5
HETATM    5  N   UNL     1      -8.366   5.393  66.454  1.00  0.00    -0.109 NA 
HETATM    6  H   UNL     1      -7.453   5.175  66.853  1.00  0.00     0.000 HD 
BRANCH   5   7
HETATM    7  C   UNL     1      -8.463   6.537  65.542  1.00  0.00    -0.136 C  
HETATM    8  C   UNL     1      -9.121   7.728  66.243  1.00  0.00    -0.221 C  
HETATM    9  C   UNL     1      -7.104   6.974  64.985  1.00  0.00    -0.064 C  
ENDBRANCH   5   7
ENDBRANCH   3   5
BRANCH   3  10
HETATM   10  O   UNL     1      -9.284   4.439  68.574  1.00  0.00    -0.117 OA 
BRANCH  10  11
HETATM   11  C   UNL     1     -10.006   5.196  69.468  1.00  0.00    -0.231 A  
HETATM   12  C   UNL     1     -10.897   6.195  69.078  1.00  0.00    -0.416 A  
HETATM   13  C   UNL     1     -11.475   7.053  70.019  1.00  0.00    -0.262 A  
HETATM   14  C   UNL     1     -11.235   6.854  71.373  1.00  0.00    -0.259 A  
HETATM   15  C   UNL     1     -10.422   5.810  71.791  1.00  0.00    -0.281 A  
HETATM   16 CL   UNL     1     -11.959   7.903  72.526  1.00  0.00    -0.371 Cl 
HETATM   17  C   UNL     1      -9.796   4.990  70.839  1.00  0.00    -0.205 A  
HETATM   18 CL   UNL     1      -8.790   3.709  71.410  1.00  0.00    -0.132 Cl 
ENDBRANCH  10  11
ENDBRANCH   3  10
ENDBRANCH   2   3
TORSDOF 5
ENDMDL
MODEL      199
REMARK 921   NORMALIZED FREE ENERGY PREDICTED BY IDOCK:   -2.70 KCAL/MOL
REMARK 922        TOTAL FREE ENERGY PREDICTED BY IDOCK:   -3.92 KCAL/MOL
REMARK 923 INTER-LIGAND FREE ENERGY PREDICTED BY IDOCK:   -3.49 KCAL/MOL
REMARK 924 INTRA-LIGAND FREE ENERGY PREDICTED BY IDOCK:   -0.43 KCAL/MOL
REMARK 927      BINDING AFFINITY PREDICTED BY RF-SCORE:    0.00 PKD
ROOT
HETATM    1  C   UNL     1      -8.180   7.835  73.096  1.00  0.00    -0.149 C  
HETATM    2  O   UNL     1      -8.728   8.938  72.396  1.00  0.00    -0.400 OA 
ENDROOT
BRANCH   2   3
HETATM    3  P   UNL     1      -9.246   8.764  70.755  1.00  0.00    -0.238 P  
HETATM    4  S   UNL     1     -11.092   9.446  71.203  1.00  0.00    -0.390 S  
BRANCH   3   5
HETATM    5  N   UNL     1      -8.243  10.100  70.399  1.00  0.00    -0.397 NA 
HETATM    6  H   UNL     1      -8.567  11.026  70.677  1.00  0.00     0.000 HD 
BRANCH   5   7
HETATM    7  C   UNL     1      -6.947  10.000  69.721  1.00  0.00    -0.107 C  
HETATM    8  C   UNL     1      -6.099  11.245  69.998  1.00  0.00    -0.142 C  
HETATM    9  C   UNL     1      -6.154   8.754  70.128  1.00  0.00    -0.033 C  
ENDBRANCH   5   7
ENDBRANCH   3   5
BRANCH   3  10
HETATM   10  O   UNL     1      -9.763   8.589  69.114  1.00  0.00    -0.165 OA 
BRANCH  10  11
HETATM   11  C   UNL     1      -9.473   7.458  68.384  1.00  0.00    -0.143 A  
HETATM   12  C   UNL     1      -8.398   7.375  67.500  1.00  0.00    -0.113 A  
HETATM   13  C   UNL     1      -8.245   6.273  66.654  1.00  0.00    -0.111 A  
HETATM   14  C   UNL     1      -9.120   5.198  66.756  1.00  0.00    -0.118 A  
HETATM   15  C   UNL     1     -10.146   5.220  67.691  1.00  0.00    -0.216 A  
HETATM   16 CL   UNL     1      -8.918   3.839  65.723  1.00  0.00    -0.128 Cl 
HETATM   17  C   UNL     1     -10.332   6.355  68.495  1.00  0.00    -0.197 A  
HETATM   18 CL   UNL     1     -11.624   6.334  69.638  1.00  0.00    -0.441 Cl 
ENDBRANCH  10  11
ENDBRANCH   3  10
ENDBRANCH   2   3
TORSDOF 5
ENDMDL
MODEL      200
REMARK 921   NORMALIZED FREE ENERGY PREDICTED BY IDOCK:   -2.66 KCAL/MOL
REMARK 922        TOTAL FREE ENERGY PREDICTED BY IDOCK:   -3.85 KCAL/MOL
REMARK 923 INTER-LIGAND FREE ENERGY PREDICTED BY IDOCK:   -3.39 KCAL/MOL
REMARK 924 INTRA-LIGAND FREE ENERGY PREDICTED BY IDOCK:   -0.46 KCAL/MOL
REMARK 927      BINDING AFFINITY PREDICTED BY RF-SCORE:    0.00 PKD
ROOT
HETATM    1  C   UNL     1      -7.261   5.735  73.130  1.00  0.00    -0.090 C  
HETATM    2  O   UNL     1      -7.017   5.598  71.742  1.00  0.00    -0.071 OA 
ENDROOT
BRANCH   2   3
HETATM    3  P   UNL     1      -8.223   6.058  70.591  1.00  0.00    -0.123 P  
HETATM    4  S   UNL     1      -8.501   4.141  70.025  1.00  0.00    -0.065 S  
BRANCH   3   5
HETATM    5  N   UNL     1      -9.236   6.384  71.928  1.00  0.00    -0.149 NA 
HETATM    6  H   UNL     1      -8.825   6.860  72.731  1.00  0.00     0.000 HD 
BRANCH   5   7
HETATM    7  C   UNL     1     -10.655   6.024  71.995  1.00  0.00    -0.223 C  
HETATM    8  C   UNL     1     -10.935   5.172  73.236  1.00  0.00    -0.375 C  
HETATM    9  C   UNL     1     -11.582   7.244  72.007  1.00  0.00    -0.311 C  
ENDBRANCH   5   7
ENDBRANCH   3   5
BRANCH   3  10
HETATM   10  O   UNL     1      -9.430   6.519  69.440  1.00  0.00    -0.145 OA 
BRANCH  10  11
HETATM   11  C   UNL     1      -9.487   7.796  68.930  1.00  0.00    -0.150 A  
HETATM   12  C   UNL     1      -8.791   8.871  69.482  1.00  0.00    -0.144 A  
HETATM   13  C   UNL     1      -9.014  10.178  69.040  1.00  0.00    -0.168 A  
HETATM   14  C   UNL     1      -9.874  10.408  67.972  1.00  0.00    -0.150 A  
HETATM   15  C   UNL     1     -10.511   9.344  67.348  1.00  0.00    -0.343 A  
HETATM   16 CL   UNL     1     -10.134  12.015  67.423  1.00  0.00    -0.202 Cl 
HETATM   17  C   UNL     1     -10.329   8.040  67.836  1.00  0.00    -0.222 A  
HETATM   18 CL   UNL     1     -11.148   6.753  67.029  1.00  0.00    -0.460 Cl 
ENDBRANCH  10  11
ENDBRANCH   3  10
ENDBRANCH   2   3
TORSDOF 5
ENDMDL
MODEL      201
REMARK 921   NORMALIZED FREE ENERGY PREDICTED BY IDOCK:   -2.64 KCAL/MOL
REMARK 922        TOTAL FREE ENERGY PREDICTED BY IDOCK:   -3.84 KCAL/MOL
REMARK 923 INTER-LIGAND FREE ENERGY PREDICTED BY IDOCK:   -3.46 KCAL/MOL
REMARK 924 INTRA-LIGAND FREE ENERGY PREDICTED BY IDOCK:   -0.37 KCAL/MOL
REMARK 927      BINDING AFFINITY PREDICTED BY RF-SCORE:    0.00 PKD
ROOT
HETATM    1  C   UNL     1      -5.551   9.339  67.959  1.00  0.00    -0.038 C  
HETATM    2  O   UNL     1      -6.497   8.656  67.156  1.00  0.00    -0.056 OA 
ENDROOT
BRANCH   2   3
HETATM    3  P   UNL     1      -8.191   8.851  67.440  1.00  0.00    -0.108 P  
HETATM    4  S   UNL     1      -8.652   7.733  65.824  1.00  0.00    -0.121 S  
BRANCH   3   5
HETATM    5  N   UNL     1      -7.986   7.812  68.781  1.00  0.00    -0.123 NA 
HETATM    6  H   UNL     1      -7.085   7.821  69.257  1.00  0.00     0.000 HD 
BRANCH   5   7
HETATM    7  C   UNL     1      -9.023   6.910  69.290  1.00  0.00    -0.137 C  
HETATM    8  C   UNL     1      -8.561   5.453  69.197  1.00  0.00    -0.102 C  
HETATM    9  C   UNL     1      -9.423   7.215  70.738  1.00  0.00    -0.164 C  
ENDBRANCH   5   7
ENDBRANCH   3   5
BRANCH   3  10
HETATM   10  O   UNL     1      -9.886   9.047  67.725  1.00  0.00    -0.154 OA 
BRANCH  10  11
HETATM   11  C   UNL     1     -10.498  10.275  67.614  1.00  0.00    -0.239 A  
HETATM   12  C   UNL     1     -10.439  11.056  66.461  1.00  0.00    -0.309 A  
HETATM   13  C   UNL     1     -10.925  12.367  66.453  1.00  0.00    -0.315 A  
HETATM   14  C   UNL     1     -11.561  12.874  67.579  1.00  0.00    -0.356 A  
HETATM   15  C   UNL     1     -11.710  12.083  68.711  1.00  0.00    -0.377 A  
HETATM   16 CL   UNL     1     -12.169  14.481  67.559  1.00  0.00    -0.280 Cl 
HETATM   17  C   UNL     1     -11.167  10.790  68.734  1.00  0.00    -0.272 A  
HETATM   18 CL   UNL     1     -11.375   9.850  70.166  1.00  0.00    -0.315 Cl 
ENDBRANCH  10  11
ENDBRANCH   3  10
ENDBRANCH   2   3
TORSDOF 5
ENDMDL
MODEL      202
REMARK 921   NORMALIZED FREE ENERGY PREDICTED BY IDOCK:   -2.64 KCAL/MOL
REMARK 922        TOTAL FREE ENERGY PREDICTED BY IDOCK:   -3.83 KCAL/MOL
REMARK 923 INTER-LIGAND FREE ENERGY PREDICTED BY IDOCK:   -3.37 KCAL/MOL
REMARK 924 INTRA-LIGAND FREE ENERGY PREDICTED BY IDOCK:   -0.46 KCAL/MOL
REMARK 927      BINDING AFFINITY PREDICTED BY RF-SCORE:    0.00 PKD
ROOT
HETATM    1  C   UNL     1     -11.971   9.126  71.809  1.00  0.00    -0.379 C  
HETATM    2  O   UNL     1     -11.056   9.856  71.011  1.00  0.00    -0.337 OA 
ENDROOT
BRANCH   2   3
HETATM    3  P   UNL     1      -9.908   9.030  70.016  1.00  0.00    -0.211 P  
HETATM    4  S   UNL     1      -9.680  10.649  68.833  1.00  0.00    -0.201 S  
BRANCH   3   5
HETATM    5  N   UNL     1      -8.823   9.159  71.330  1.00  0.00    -0.326 NA 
HETATM    6  H   UNL     1      -8.553  10.093  71.635  1.00  0.00     0.000 HD 
BRANCH   5   7
HETATM    7  C   UNL     1      -8.257   8.012  72.047  1.00  0.00    -0.137 C  
HETATM    8  C   UNL     1      -6.742   8.171  72.202  1.00  0.00    -0.076 C  
HETATM    9  C   UNL     1      -8.882   7.803  73.429  1.00  0.00    -0.298 C  
ENDBRANCH   5   7
ENDBRANCH   3   5
BRANCH   3  10
HETATM   10  O   UNL     1      -8.759   8.203  69.021  1.00  0.00    -0.141 OA 
BRANCH  10  11
HETATM   11  C   UNL     1      -9.156   7.292  68.069  1.00  0.00    -0.133 A  
HETATM   12  C   UNL     1     -10.165   6.354  68.284  1.00  0.00    -0.197 A  
HETATM   13  C   UNL     1     -10.414   5.338  67.356  1.00  0.00    -0.213 A  
HETATM   14  C   UNL     1      -9.714   5.313  66.156  1.00  0.00    -0.161 A  
HETATM   15  C   UNL     1      -8.767   6.290  65.881  1.00  0.00    -0.154 A  
HETATM   16 CL   UNL     1     -10.035   4.071  65.012  1.00  0.00    -0.202 Cl 
HETATM   17  C   UNL     1      -8.477   7.271  66.842  1.00  0.00    -0.119 A  
HETATM   18 CL   UNL     1      -7.288   8.459  66.454  1.00  0.00    -0.082 Cl 
ENDBRANCH  10  11
ENDBRANCH   3  10
ENDBRANCH   2   3
TORSDOF 5
ENDMDL
MODEL      203
REMARK 921   NORMALIZED FREE ENERGY PREDICTED BY IDOCK:   -2.63 KCAL/MOL
REMARK 922        TOTAL FREE ENERGY PREDICTED BY IDOCK:   -3.82 KCAL/MOL
REMARK 923 INTER-LIGAND FREE ENERGY PREDICTED BY IDOCK:   -3.55 KCAL/MOL
REMARK 924 INTRA-LIGAND FREE ENERGY PREDICTED BY IDOCK:   -0.27 KCAL/MOL
REMARK 927      BINDING AFFINITY PREDICTED BY RF-SCORE:    0.00 PKD
ROOT
HETATM    1  C   UNL     1     -11.891  13.736  69.851  1.00  0.00    -0.327 C  
HETATM    2  O   UNL     1     -10.854  13.797  68.888  1.00  0.00    -0.246 OA 
ENDROOT
BRANCH   2   3
HETATM    3  P   UNL     1     -10.165  12.346  68.250  1.00  0.00    -0.215 P  
HETATM    4  S   UNL     1     -11.691  11.235  68.965  1.00  0.00    -0.362 S  
BRANCH   3   5
HETATM    5  N   UNL     1     -10.597  12.935  66.706  1.00  0.00    -0.256 NA 
HETATM    6  H   UNL     1     -11.024  12.282  66.049  1.00  0.00     0.000 HD 
BRANCH   5   7
HETATM    7  C   UNL     1     -10.393  14.318  66.265  1.00  0.00    -0.294 C  
HETATM    8  C   UNL     1      -8.942  14.748  66.500  1.00  0.00    -0.267 C  
HETATM    9  C   UNL     1     -10.745  14.533  64.789  1.00  0.00    -0.414 C  
ENDBRANCH   5   7
ENDBRANCH   3   5
BRANCH   3  10
HETATM   10  O   UNL     1      -9.474  10.894  67.611  1.00  0.00    -0.157 OA 
BRANCH  10  11
HETATM   11  C   UNL     1      -8.730  10.044  68.398  1.00  0.00    -0.117 A  
HETATM   12  C   UNL     1      -7.785  10.490  69.322  1.00  0.00    -0.144 A  
HETATM   13  C   UNL     1      -6.932   9.593  69.971  1.00  0.00    -0.093 A  
HETATM   14  C   UNL     1      -7.084   8.227  69.767  1.00  0.00    -0.056 A  
HETATM   15  C   UNL     1      -8.077   7.754  68.920  1.00  0.00    -0.126 A  
HETATM   16 CL   UNL     1      -6.042   7.127  70.578  1.00  0.00    -0.027 Cl 
HETATM   17  C   UNL     1      -8.890   8.662  68.224  1.00  0.00    -0.142 A  
HETATM   18 CL   UNL     1     -10.106   8.024  67.178  1.00  0.00    -0.302 Cl 
ENDBRANCH  10  11
ENDBRANCH   3  10
ENDBRANCH   2   3
TORSDOF 5
ENDMDL
MODEL      204
REMARK 921   NORMALIZED FREE ENERGY PREDICTED BY IDOCK:   -2.60 KCAL/MOL
REMARK 922        TOTAL FREE ENERGY PREDICTED BY IDOCK:   -3.78 KCAL/MOL
REMARK 923 INTER-LIGAND FREE ENERGY PREDICTED BY IDOCK:   -4.63 KCAL/MOL
REMARK 924 INTRA-LIGAND FREE ENERGY PREDICTED BY IDOCK:    0.85 KCAL/MOL
REMARK 927      BINDING AFFINITY PREDICTED BY RF-SCORE:    0.00 PKD
ROOT
HETATM    1  C   UNL     1      -7.284   9.265  67.755  1.00  0.00    -0.083 C  
HETATM    2  O   UNL     1      -8.229   8.220  67.618  1.00  0.00    -0.124 OA 
ENDROOT
BRANCH   2   3
HETATM    3  P   UNL     1      -9.553   8.085  68.723  1.00  0.00    -0.153 P  
HETATM    4  S   UNL     1     -10.663   7.085  67.366  1.00  0.00    -0.314 S  
BRANCH   3   5
HETATM    5  N   UNL     1      -8.595   6.959  69.580  1.00  0.00    -0.133 NA 
HETATM    6  H   UNL     1      -7.864   7.323  70.191  1.00  0.00     0.000 HD 
BRANCH   5   7
HETATM    7  C   UNL     1      -8.757   5.504  69.494  1.00  0.00    -0.104 C  
HETATM    8  C   UNL     1     -10.162   5.093  69.941  1.00  0.00    -0.361 C  
HETATM    9  C   UNL     1      -8.501   4.957  68.086  1.00  0.00    -0.102 C  
ENDBRANCH   5   7
ENDBRANCH   3   5
BRANCH   3  10
HETATM   10  O   UNL     1     -10.876   7.950  69.830  1.00  0.00    -0.249 OA 
BRANCH  10  11
HETATM   11  C   UNL     1     -11.554   9.060  70.279  1.00  0.00    -0.060 A  
HETATM   12  C   UNL     1     -11.262  10.357  69.855  1.00  0.00    -0.371 A  
HETATM   13  C   UNL     1     -11.856  11.465  70.466  1.00  0.00    -0.394 A  
HETATM   14  C   UNL     1     -12.822  11.277  71.447  1.00  0.00    -0.410 A  
HETATM   15  C   UNL     1     -13.194   9.993  71.823  1.00  0.00    -0.540 A  
HETATM   16 CL   UNL     1     -13.560  12.643  72.184  1.00  0.00    -0.590 Cl 
HETATM   17  C   UNL     1     -12.550   8.886  71.250  1.00  0.00    -0.262 A  
HETATM   18 CL   UNL     1     -13.045   7.311  71.755  1.00  0.00    -0.384 Cl 
ENDBRANCH  10  11
ENDBRANCH   3  10
ENDBRANCH   2   3
TORSDOF 5
ENDMDL
MODEL      205
REMARK 921   NORMALIZED FREE ENERGY PREDICTED BY IDOCK:   -2.60 KCAL/MOL
REMARK 922        TOTAL FREE ENERGY PREDICTED BY IDOCK:   -3.78 KCAL/MOL
REMARK 923 INTER-LIGAND FREE ENERGY PREDICTED BY IDOCK:   -3.29 KCAL/MOL
REMARK 924 INTRA-LIGAND FREE ENERGY PREDICTED BY IDOCK:   -0.49 KCAL/MOL
REMARK 927      BINDING AFFINITY PREDICTED BY RF-SCORE:    0.00 PKD
ROOT
HETATM    1  C   UNL     1      -6.418   4.000  71.805  1.00  0.00    -0.018 C  
HETATM    2  O   UNL     1      -7.366   3.420  70.928  1.00  0.00    -0.036 OA 
ENDROOT
BRANCH   2   3
HETATM    3  P   UNL     1      -8.856   4.228  70.588  1.00  0.00    -0.100 P  
HETATM    4  S   UNL     1      -9.599   2.597  69.659  1.00  0.00     0.125 S  
BRANCH   3   5
HETATM    5  N   UNL     1      -9.192   4.105  72.259  1.00  0.00    -0.119 NA 
HETATM    6  H   UNL     1      -8.409   3.934  72.890  1.00  0.00     0.000 HD 
BRANCH   5   7
HETATM    7  C   UNL     1     -10.531   4.227  72.842  1.00  0.00    -0.176 C  
HETATM    8  C   UNL     1     -11.061   2.854  73.263  1.00  0.00    -0.233 C  
HETATM    9  C   UNL     1     -10.573   5.171  74.048  1.00  0.00    -0.335 C  
ENDBRANCH   5   7
ENDBRANCH   3   5
BRANCH   3  10
HETATM   10  O   UNL     1     -10.347   5.039  70.248  1.00  0.00    -0.266 OA 
BRANCH  10  11
HETATM   11  C   UNL     1     -10.434   6.005  69.272  1.00  0.00    -0.264 A  
HETATM   12  C   UNL     1     -10.376   5.720  67.908  1.00  0.00    -0.266 A  
HETATM   13  C   UNL     1     -10.294   6.745  66.961  1.00  0.00    -0.338 A  
HETATM   14  C   UNL     1     -10.365   8.071  67.372  1.00  0.00    -0.284 A  
HETATM   15  C   UNL     1     -10.512   8.378  68.718  1.00  0.00    -0.202 A  
HETATM   16 CL   UNL     1     -10.277   9.327  66.202  1.00  0.00    -0.307 Cl 
HETATM   17  C   UNL     1     -10.533   7.346  69.669  1.00  0.00    -0.232 A  
HETATM   18 CL   UNL     1     -10.713   7.780  71.330  1.00  0.00    -0.242 Cl 
ENDBRANCH  10  11
ENDBRANCH   3  10
ENDBRANCH   2   3
TORSDOF 5
ENDMDL
MODEL      206
REMARK 921   NORMALIZED FREE ENERGY PREDICTED BY IDOCK:   -2.60 KCAL/MOL
REMARK 922        TOTAL FREE ENERGY PREDICTED BY IDOCK:   -3.77 KCAL/MOL
REMARK 923 INTER-LIGAND FREE ENERGY PREDICTED BY IDOCK:   -3.34 KCAL/MOL
REMARK 924 INTRA-LIGAND FREE ENERGY PREDICTED BY IDOCK:   -0.44 KCAL/MOL
REMARK 927      BINDING AFFINITY PREDICTED BY RF-SCORE:    0.00 PKD
ROOT
HETATM    1  C   UNL     1      -9.790   4.126  66.259  1.00  0.00    -0.192 C  
HETATM    2  O   UNL     1      -9.078   4.267  67.475  1.00  0.00    -0.118 OA 
ENDROOT
BRANCH   2   3
HETATM    3  P   UNL     1      -9.424   5.579  68.547  1.00  0.00    -0.134 P  
HETATM    4  S   UNL     1      -9.688   4.319  70.101  1.00  0.00    -0.199 S  
BRANCH   3   5
HETATM    5  N   UNL     1      -7.766   5.975  68.442  1.00  0.00    -0.097 NA 
HETATM    6  H   UNL     1      -7.185   5.814  69.264  1.00  0.00     0.000 HD 
BRANCH   5   7
HETATM    7  C   UNL     1      -7.125   6.531  67.246  1.00  0.00    -0.077 C  
HETATM    8  C   UNL     1      -6.388   7.829  67.586  1.00  0.00    -0.051 C  
HETATM    9  C   UNL     1      -6.143   5.557  66.587  1.00  0.00    -0.030 C  
ENDBRANCH   5   7
ENDBRANCH   3   5
BRANCH   3  10
HETATM   10  O   UNL     1      -9.771   6.893  69.618  1.00  0.00    -0.156 OA 
BRANCH  10  11
HETATM   11  C   UNL     1     -10.233   8.101  69.149  1.00  0.00    -0.214 A  
HETATM   12  C   UNL     1     -10.111   8.501  67.819  1.00  0.00    -0.266 A  
HETATM   13  C   UNL     1     -10.436   9.802  67.425  1.00  0.00    -0.319 A  
HETATM   14  C   UNL     1     -10.976  10.688  68.349  1.00  0.00    -0.251 A  
HETATM   15  C   UNL     1     -11.189  10.285  69.660  1.00  0.00    -0.322 A  
HETATM   16 CL   UNL     1     -11.386  12.283  67.856  1.00  0.00    -0.329 Cl 
HETATM   17  C   UNL     1     -10.805   8.997  70.064  1.00  0.00    -0.231 A  
HETATM   18 CL   UNL     1     -11.087   8.546  71.706  1.00  0.00    -0.352 Cl 
ENDBRANCH  10  11
ENDBRANCH   3  10
ENDBRANCH   2   3
TORSDOF 5
ENDMDL
MODEL      207
REMARK 921   NORMALIZED FREE ENERGY PREDICTED BY IDOCK:   -2.57 KCAL/MOL
REMARK 922        TOTAL FREE ENERGY PREDICTED BY IDOCK:   -3.74 KCAL/MOL
REMARK 923 INTER-LIGAND FREE ENERGY PREDICTED BY IDOCK:   -3.62 KCAL/MOL
REMARK 924 INTRA-LIGAND FREE ENERGY PREDICTED BY IDOCK:   -0.12 KCAL/MOL
REMARK 927      BINDING AFFINITY PREDICTED BY RF-SCORE:    0.00 PKD
ROOT
HETATM    1  C   UNL     1     -10.145   8.987  71.661  1.00  0.00    -0.335 C  
HETATM    2  O   UNL     1      -9.663   9.733  70.557  1.00  0.00    -0.249 OA 
ENDROOT
BRANCH   2   3
HETATM    3  P   UNL     1     -10.266   9.431  68.965  1.00  0.00    -0.217 P  
HETATM    4  S   UNL     1     -11.620  10.919  69.131  1.00  0.00    -0.329 S  
BRANCH   3   5
HETATM    5  N   UNL     1      -8.799  10.091  68.390  1.00  0.00    -0.116 NA 
HETATM    6  H   UNL     1      -8.384   9.677  67.556  1.00  0.00     0.000 HD 
BRANCH   5   7
HETATM    7  C   UNL     1      -8.098  11.216  69.018  1.00  0.00    -0.076 C  
HETATM    8  C   UNL     1      -6.621  10.876  69.232  1.00  0.00    -0.079 C  
HETATM    9  C   UNL     1      -8.201  12.512  68.208  1.00  0.00    -0.168 C  
ENDBRANCH   5   7
ENDBRANCH   3   5
BRANCH   3  10
HETATM   10  O   UNL     1     -10.869   9.128  67.372  1.00  0.00    -0.243 OA 
BRANCH  10  11
HETATM   11  C   UNL     1     -10.257   9.658  66.259  1.00  0.00    -0.216 A  
HETATM   12  C   UNL     1     -10.494  10.953  65.801  1.00  0.00    -0.275 A  
HETATM   13  C   UNL     1      -9.987  11.388  64.573  1.00  0.00    -0.318 A  
HETATM   14  C   UNL     1      -9.157  10.553  63.835  1.00  0.00    -0.233 A  
HETATM   15  C   UNL     1      -8.834   9.290  64.313  1.00  0.00    -0.185 A  
HETATM   16 CL   UNL     1      -8.524  11.097  62.332  1.00  0.00    -0.313 Cl 
HETATM   17  C   UNL     1      -9.395   8.837  65.517  1.00  0.00    -0.095 A  
HETATM   18 CL   UNL     1      -8.967   7.257  66.066  1.00  0.00    -0.175 Cl 
ENDBRANCH  10  11
ENDBRANCH   3  10
ENDBRANCH   2   3
TORSDOF 5
ENDMDL
MODEL      208
REMARK 921   NORMALIZED FREE ENERGY PREDICTED BY IDOCK:   -2.57 KCAL/MOL
REMARK 922        TOTAL FREE ENERGY PREDICTED BY IDOCK:   -3.74 KCAL/MOL
REMARK 923 INTER-LIGAND FREE ENERGY PREDICTED BY IDOCK:   -3.80 KCAL/MOL
REMARK 924 INTRA-LIGAND FREE ENERGY PREDICTED BY IDOCK:    0.06 KCAL/MOL
REMARK 927      BINDING AFFINITY PREDICTED BY RF-SCORE:    0.00 PKD
ROOT
HETATM    1  C   UNL     1     -10.476   4.663  72.592  1.00  0.00    -0.199 C  
HETATM    2  O   UNL     1     -10.932   5.607  71.640  1.00  0.00    -0.253 OA 
ENDROOT
BRANCH   2   3
HETATM    3  P   UNL     1      -9.813   6.392  70.580  1.00  0.00    -0.186 P  
HETATM    4  S   UNL     1      -9.890   4.860  69.268  1.00  0.00    -0.196 S  
BRANCH   3   5
HETATM    5  N   UNL     1     -11.075   7.485  70.216  1.00  0.00    -0.264 NA 
HETATM    6  H   UNL     1     -11.496   7.434  69.289  1.00  0.00     0.000 HD 
BRANCH   5   7
HETATM    7  C   UNL     1     -11.591   8.490  71.151  1.00  0.00    -0.281 C  
HETATM    8  C   UNL     1     -10.612   8.696  72.310  1.00  0.00    -0.375 C  
HETATM    9  C   UNL     1     -11.867   9.841  70.483  1.00  0.00    -0.316 C  
ENDBRANCH   5   7
ENDBRANCH   3   5
BRANCH   3  10
HETATM   10  O   UNL     1      -8.694   7.177  69.520  1.00  0.00    -0.133 OA 
BRANCH  10  11
HETATM   11  C   UNL     1      -9.123   7.966  68.477  1.00  0.00    -0.132 A  
HETATM   12  C   UNL     1      -9.773   7.459  67.353  1.00  0.00    -0.196 A  
HETATM   13  C   UNL     1     -10.034   8.270  66.244  1.00  0.00    -0.179 A  
HETATM   14  C   UNL     1      -9.727   9.624  66.293  1.00  0.00    -0.240 A  
HETATM   15  C   UNL     1      -9.160  10.171  67.436  1.00  0.00    -0.149 A  
HETATM   16 CL   UNL     1     -10.063  10.620  64.933  1.00  0.00    -0.382 Cl 
HETATM   17  C   UNL     1      -8.845   9.340  68.523  1.00  0.00    -0.129 A  
HETATM   18 CL   UNL     1      -8.137  10.067  69.919  1.00  0.00    -0.190 Cl 
ENDBRANCH  10  11
ENDBRANCH   3  10
ENDBRANCH   2   3
TORSDOF 5
ENDMDL
MODEL      209
REMARK 921   NORMALIZED FREE ENERGY PREDICTED BY IDOCK:   -2.56 KCAL/MOL
REMARK 922        TOTAL FREE ENERGY PREDICTED BY IDOCK:   -3.73 KCAL/MOL
REMARK 923 INTER-LIGAND FREE ENERGY PREDICTED BY IDOCK:   -3.02 KCAL/MOL
REMARK 924 INTRA-LIGAND FREE ENERGY PREDICTED BY IDOCK:   -0.71 KCAL/MOL
REMARK 927      BINDING AFFINITY PREDICTED BY RF-SCORE:    0.00 PKD
ROOT
HETATM    1  C   UNL     1      -5.424   9.266  67.885  1.00  0.00    -0.034 C  
HETATM    2  O   UNL     1      -6.566   8.931  67.116  1.00  0.00    -0.060 OA 
ENDROOT
BRANCH   2   3
HETATM    3  P   UNL     1      -7.650  10.164  66.573  1.00  0.00    -0.118 P  
HETATM    4  S   UNL     1      -7.337   9.673  64.641  1.00  0.00    -0.130 S  
BRANCH   3   5
HETATM    5  N   UNL     1      -8.911   9.187  67.186  1.00  0.00    -0.122 NA 
HETATM    6  H   UNL     1      -9.655   8.911  66.544  1.00  0.00     0.000 HD 
BRANCH   5   7
HETATM    7  C   UNL     1      -8.993   8.721  68.573  1.00  0.00    -0.138 C  
HETATM    8  C   UNL     1      -9.255   9.895  69.520  1.00  0.00    -0.238 C  
HETATM    9  C   UNL     1     -10.077   7.658  68.783  1.00  0.00    -0.202 C  
ENDBRANCH   5   7
ENDBRANCH   3   5
BRANCH   3  10
HETATM   10  O   UNL     1      -8.735  11.398  66.031  1.00  0.00    -0.184 OA 
BRANCH  10  11
HETATM   11  C   UNL     1      -9.092  12.450  66.843  1.00  0.00    -0.211 A  
HETATM   12  C   UNL     1      -8.181  13.398  67.308  1.00  0.00    -0.162 A  
HETATM   13  C   UNL     1      -8.554  14.345  68.267  1.00  0.00    -0.170 A  
HETATM   14  C   UNL     1      -9.873  14.406  68.700  1.00  0.00    -0.231 A  
HETATM   15  C   UNL     1     -10.817  13.529  68.185  1.00  0.00    -0.271 A  
HETATM   16 CL   UNL     1     -10.328  15.581  69.869  1.00  0.00    -0.311 Cl 
HETATM   17  C   UNL     1     -10.425  12.542  67.268  1.00  0.00    -0.220 A  
HETATM   18 CL   UNL     1     -11.636  11.472  66.662  1.00  0.00    -0.215 Cl 
ENDBRANCH  10  11
ENDBRANCH   3  10
ENDBRANCH   2   3
TORSDOF 5
ENDMDL
MODEL      210
REMARK 921   NORMALIZED FREE ENERGY PREDICTED BY IDOCK:   -2.53 KCAL/MOL
REMARK 922        TOTAL FREE ENERGY PREDICTED BY IDOCK:   -3.69 KCAL/MOL
REMARK 923 INTER-LIGAND FREE ENERGY PREDICTED BY IDOCK:   -3.46 KCAL/MOL
REMARK 924 INTRA-LIGAND FREE ENERGY PREDICTED BY IDOCK:   -0.23 KCAL/MOL
REMARK 927      BINDING AFFINITY PREDICTED BY RF-SCORE:    0.00 PKD
ROOT
HETATM    1  C   UNL     1      -8.575   7.114  65.463  1.00  0.00    -0.080 C  
HETATM    2  O   UNL     1      -9.515   8.121  65.791  1.00  0.00    -0.077 OA 
ENDROOT
BRANCH   2   3
HETATM    3  P   UNL     1      -8.988   9.634  66.441  1.00  0.00    -0.165 P  
HETATM    4  S   UNL     1      -7.460   8.749  67.419  1.00  0.00    -0.089 S  
BRANCH   3   5
HETATM    5  N   UNL     1      -8.470  10.023  64.860  1.00  0.00    -0.156 NA 
HETATM    6  H   UNL     1      -7.526   9.751  64.588  1.00  0.00     0.000 HD 
BRANCH   5   7
HETATM    7  C   UNL     1      -9.297  10.722  63.871  1.00  0.00    -0.253 C  
HETATM    8  C   UNL     1      -9.361   9.924  62.566  1.00  0.00    -0.263 C  
HETATM    9  C   UNL     1     -10.723  10.988  64.364  1.00  0.00    -0.340 C  
ENDBRANCH   5   7
ENDBRANCH   3   5
BRANCH   3  10
HETATM   10  O   UNL     1      -8.461  11.148  67.092  1.00  0.00    -0.131 OA 
BRANCH  10  11
HETATM   11  C   UNL     1      -9.359  12.119  67.472  1.00  0.00    -0.181 A  
HETATM   12  C   UNL     1      -9.497  13.335  66.804  1.00  0.00    -0.257 A  
HETATM   13  C   UNL     1     -10.294  14.358  67.326  1.00  0.00    -0.260 A  
HETATM   14  C   UNL     1     -11.036  14.134  68.479  1.00  0.00    -0.254 A  
HETATM   15  C   UNL     1     -10.984  12.900  69.114  1.00  0.00    -0.184 A  
HETATM   16 CL   UNL     1     -12.025  15.391  69.109  1.00  0.00    -0.347 Cl 
HETATM   17  C   UNL     1     -10.135  11.898  68.619  1.00  0.00    -0.177 A  
HETATM   18 CL   UNL     1     -10.102  10.384  69.447  1.00  0.00    -0.247 Cl 
ENDBRANCH  10  11
ENDBRANCH   3  10
ENDBRANCH   2   3
TORSDOF 5
ENDMDL
MODEL      211
REMARK 921   NORMALIZED FREE ENERGY PREDICTED BY IDOCK:   -2.53 KCAL/MOL
REMARK 922        TOTAL FREE ENERGY PREDICTED BY IDOCK:   -3.68 KCAL/MOL
REMARK 923 INTER-LIGAND FREE ENERGY PREDICTED BY IDOCK:   -3.03 KCAL/MOL
REMARK 924 INTRA-LIGAND FREE ENERGY PREDICTED BY IDOCK:   -0.66 KCAL/MOL
REMARK 927      BINDING AFFINITY PREDICTED BY RF-SCORE:    0.00 PKD
ROOT
HETATM    1  C   UNL     1      -9.575  11.216  65.129  1.00  0.00    -0.234 C  
HETATM    2  O   UNL     1      -9.294  11.718  66.423  1.00  0.00    -0.209 OA 
ENDROOT
BRANCH   2   3
HETATM    3  P   UNL     1      -8.479  10.733  67.588  1.00  0.00    -0.121 P  
HETATM    4  S   UNL     1      -6.694  11.554  67.123  1.00  0.00    -0.141 S  
BRANCH   3   5
HETATM    5  N   UNL     1      -9.228  11.697  68.783  1.00  0.00    -0.380 NA 
HETATM    6  H   UNL     1      -8.704  12.491  69.151  1.00  0.00     0.000 HD 
BRANCH   5   7
HETATM    7  C   UNL     1     -10.573  11.455  69.313  1.00  0.00    -0.108 C  
HETATM    8  C   UNL     1     -11.483  12.654  69.034  1.00  0.00    -0.354 C  
HETATM    9  C   UNL     1     -11.223  10.191  68.741  1.00  0.00    -0.217 C  
ENDBRANCH   5   7
ENDBRANCH   3   5
BRANCH   3  10
HETATM   10  O   UNL     1      -7.664   9.746  68.753  1.00  0.00    -0.078 OA 
BRANCH  10  11
HETATM   11  C   UNL     1      -7.902   8.394  68.842  1.00  0.00    -0.113 A  
HETATM   12  C   UNL     1      -7.542   7.488  67.845  1.00  0.00    -0.110 A  
HETATM   13  C   UNL     1      -7.958   6.154  67.900  1.00  0.00    -0.110 A  
HETATM   14  C   UNL     1      -8.660   5.695  69.007  1.00  0.00    -0.105 A  
HETATM   15  C   UNL     1      -8.953   6.558  70.054  1.00  0.00    -0.144 A  
HETATM   16 CL   UNL     1      -9.156   4.051  69.076  1.00  0.00    -0.175 Cl 
HETATM   17  C   UNL     1      -8.587   7.910  69.966  1.00  0.00    -0.135 A  
HETATM   18 CL   UNL     1      -8.978   8.943  71.292  1.00  0.00    -0.294 Cl 
ENDBRANCH  10  11
ENDBRANCH   3  10
ENDBRANCH   2   3
TORSDOF 5
ENDMDL
MODEL      212
REMARK 921   NORMALIZED FREE ENERGY PREDICTED BY IDOCK:   -2.51 KCAL/MOL
REMARK 922        TOTAL FREE ENERGY PREDICTED BY IDOCK:   -3.67 KCAL/MOL
REMARK 923 INTER-LIGAND FREE ENERGY PREDICTED BY IDOCK:   -3.29 KCAL/MOL
REMARK 924 INTRA-LIGAND FREE ENERGY PREDICTED BY IDOCK:   -0.38 KCAL/MOL
REMARK 927      BINDING AFFINITY PREDICTED BY RF-SCORE:    0.00 PKD
ROOT
HETATM    1  C   UNL     1     -10.377  11.036  65.828  1.00  0.00    -0.257 C  
HETATM    2  O   UNL     1     -10.044   9.661  65.752  1.00  0.00    -0.290 OA 
ENDROOT
BRANCH   2   3
HETATM    3  P   UNL     1      -9.214   8.887  67.057  1.00  0.00    -0.151 P  
HETATM    4  S   UNL     1     -10.492   7.324  67.021  1.00  0.00    -0.323 S  
BRANCH   3   5
HETATM    5  N   UNL     1      -7.952   8.585  65.945  1.00  0.00    -0.101 NA 
HETATM    6  H   UNL     1      -8.014   7.744  65.372  1.00  0.00     0.000 HD 
BRANCH   5   7
HETATM    7  C   UNL     1      -6.787   9.456  65.763  1.00  0.00    -0.085 C  
HETATM    8  C   UNL     1      -6.703   9.944  64.315  1.00  0.00    -0.126 C  
HETATM    9  C   UNL     1      -6.796  10.669  66.700  1.00  0.00    -0.114 C  
ENDBRANCH   5   7
ENDBRANCH   3   5
BRANCH   3  10
HETATM   10  O   UNL     1      -8.383   8.113  68.362  1.00  0.00    -0.124 OA 
BRANCH  10  11
HETATM   11  C   UNL     1      -8.982   7.930  69.588  1.00  0.00    -0.146 A  
HETATM   12  C   UNL     1      -9.581   8.963  70.307  1.00  0.00    -0.212 A  
HETATM   13  C   UNL     1     -10.020   8.767  71.620  1.00  0.00    -0.381 A  
HETATM   14  C   UNL     1      -9.946   7.501  72.190  1.00  0.00    -0.177 A  
HETATM   15  C   UNL     1      -9.436   6.436  71.460  1.00  0.00    -0.162 A  
HETATM   16 CL   UNL     1     -10.501   7.262  73.799  1.00  0.00    -0.396 Cl 
HETATM   17  C   UNL     1      -8.940   6.653  70.165  1.00  0.00    -0.152 A  
HETATM   18 CL   UNL     1      -8.310   5.297  69.303  1.00  0.00    -0.091 Cl 
ENDBRANCH  10  11
ENDBRANCH   3  10
ENDBRANCH   2   3
TORSDOF 5
ENDMDL
MODEL      213
REMARK 921   NORMALIZED FREE ENERGY PREDICTED BY IDOCK:   -2.51 KCAL/MOL
REMARK 922        TOTAL FREE ENERGY PREDICTED BY IDOCK:   -3.66 KCAL/MOL
REMARK 923 INTER-LIGAND FREE ENERGY PREDICTED BY IDOCK:   -4.42 KCAL/MOL
REMARK 924 INTRA-LIGAND FREE ENERGY PREDICTED BY IDOCK:    0.76 KCAL/MOL
REMARK 927      BINDING AFFINITY PREDICTED BY RF-SCORE:    0.00 PKD
ROOT
HETATM    1  C   UNL     1     -10.303   9.381  69.506  1.00  0.00    -0.214 C  
HETATM    2  O   UNL     1      -9.787  10.658  69.176  1.00  0.00    -0.207 OA 
ENDROOT
BRANCH   2   3
HETATM    3  P   UNL     1     -10.820  11.876  68.512  1.00  0.00    -0.247 P  
HETATM    4  S   UNL     1      -9.246  13.068  68.093  1.00  0.00    -0.200 S  
BRANCH   3   5
HETATM    5  N   UNL     1     -11.065  10.814  67.197  1.00  0.00    -0.287 NA 
HETATM    6  H   UNL     1     -12.002  10.435  67.059  1.00  0.00     0.000 HD 
BRANCH   5   7
HETATM    7  C   UNL     1     -10.016  10.413  66.254  1.00  0.00    -0.226 C  
HETATM    8  C   UNL     1     -10.008   8.893  66.074  1.00  0.00    -0.199 C  
HETATM    9  C   UNL     1     -10.161  11.079  64.882  1.00  0.00    -0.359 C  
ENDBRANCH   5   7
ENDBRANCH   3   5
BRANCH   3  10
HETATM   10  O   UNL     1     -11.855  13.094  67.849  1.00  0.00    -0.342 OA 
BRANCH  10  11
HETATM   11  C   UNL     1     -11.578  14.434  68.001  1.00  0.00    -0.327 A  
HETATM   12  C   UNL     1     -10.925  15.193  67.031  1.00  0.00    -0.322 A  
HETATM   13  C   UNL     1     -10.512  16.502  67.299  1.00  0.00    -0.304 A  
HETATM   14  C   UNL     1     -10.835  17.093  68.514  1.00  0.00    -0.281 A  
HETATM   15  C   UNL     1     -11.563  16.386  69.462  1.00  0.00    -0.038 A  
HETATM   16 CL   UNL     1     -10.336  18.706  68.832  1.00  0.00    -0.249 Cl 
HETATM   17  C   UNL     1     -11.922  15.052  69.212  1.00  0.00    -0.289 A  
HETATM   18 CL   UNL     1     -12.821  14.215  70.424  1.00  0.00    -0.331 Cl 
ENDBRANCH  10  11
ENDBRANCH   3  10
ENDBRANCH   2   3
TORSDOF 5
ENDMDL
MODEL      214
REMARK 921   NORMALIZED FREE ENERGY PREDICTED BY IDOCK:   -2.50 KCAL/MOL
REMARK 922        TOTAL FREE ENERGY PREDICTED BY IDOCK:   -3.65 KCAL/MOL
REMARK 923 INTER-LIGAND FREE ENERGY PREDICTED BY IDOCK:   -3.33 KCAL/MOL
REMARK 924 INTRA-LIGAND FREE ENERGY PREDICTED BY IDOCK:   -0.33 KCAL/MOL
REMARK 927      BINDING AFFINITY PREDICTED BY RF-SCORE:    0.00 PKD
ROOT
HETATM    1  C   UNL     1     -11.188  11.694  69.090  1.00  0.00    -0.263 C  
HETATM    2  O   UNL     1     -10.224  10.870  69.720  1.00  0.00    -0.088 OA 
ENDROOT
BRANCH   2   3
HETATM    3  P   UNL     1      -9.913   9.275  69.128  1.00  0.00    -0.195 P  
HETATM    4  S   UNL     1      -8.384   9.028  70.422  1.00  0.00    -0.184 S  
BRANCH   3   5
HETATM    5  N   UNL     1     -11.363   8.810  69.902  1.00  0.00    -0.445 NA 
HETATM    6  H   UNL     1     -12.244   9.094  69.474  1.00  0.00     0.000 HD 
BRANCH   5   7
HETATM    7  C   UNL     1     -11.422   8.029  71.142  1.00  0.00    -0.276 C  
HETATM    8  C   UNL     1     -12.008   8.870  72.279  1.00  0.00    -0.380 C  
HETATM    9  C   UNL     1     -12.241   6.742  70.998  1.00  0.00    -0.405 C  
ENDBRANCH   5   7
ENDBRANCH   3   5
BRANCH   3  10
HETATM   10  O   UNL     1      -9.602   7.680  68.535  1.00  0.00    -0.146 OA 
BRANCH  10  11
HETATM   11  C   UNL     1      -8.917   7.470  67.360  1.00  0.00    -0.126 A  
HETATM   12  C   UNL     1      -7.819   8.236  66.968  1.00  0.00    -0.096 A  
HETATM   13  C   UNL     1      -7.265   8.102  65.692  1.00  0.00    -0.071 A  
HETATM   14  C   UNL     1      -7.751   7.127  64.828  1.00  0.00    -0.115 A  
HETATM   15  C   UNL     1      -8.785   6.292  65.229  1.00  0.00    -0.007 A  
HETATM   16 CL   UNL     1      -7.056   6.956  63.266  1.00  0.00    -0.059 Cl 
HETATM   17  C   UNL     1      -9.378   6.472  66.489  1.00  0.00    -0.159 A  
HETATM   18 CL   UNL     1     -10.663   5.412  66.937  1.00  0.00    -0.311 Cl 
ENDBRANCH  10  11
ENDBRANCH   3  10
ENDBRANCH   2   3
TORSDOF 5
ENDMDL
MODEL      215
REMARK 921   NORMALIZED FREE ENERGY PREDICTED BY IDOCK:   -2.50 KCAL/MOL
REMARK 922        TOTAL FREE ENERGY PREDICTED BY IDOCK:   -3.65 KCAL/MOL
REMARK 923 INTER-LIGAND FREE ENERGY PREDICTED BY IDOCK:   -3.02 KCAL/MOL
REMARK 924 INTRA-LIGAND FREE ENERGY PREDICTED BY IDOCK:   -0.62 KCAL/MOL
REMARK 927      BINDING AFFINITY PREDICTED BY RF-SCORE:    0.00 PKD
ROOT
HETATM    1  C   UNL     1      -9.582   3.910  65.681  1.00  0.00    -0.182 C  
HETATM    2  O   UNL     1      -8.675   4.107  66.751  1.00  0.00    -0.111 OA 
ENDROOT
BRANCH   2   3
HETATM    3  P   UNL     1      -9.246   4.185  68.381  1.00  0.00    -0.159 P  
HETATM    4  S   UNL     1      -9.343   2.173  68.508  1.00  0.00    -0.159 S  
BRANCH   3   5
HETATM    5  N   UNL     1      -7.668   4.683  68.807  1.00  0.00    -0.071 NA 
HETATM    6  H   UNL     1      -7.128   4.077  69.424  1.00  0.00     0.000 HD 
BRANCH   5   7
HETATM    7  C   UNL     1      -7.042   5.925  68.344  1.00  0.00    -0.081 C  
HETATM    8  C   UNL     1      -7.913   7.132  68.704  1.00  0.00    -0.123 C  
HETATM    9  C   UNL     1      -5.636   6.135  68.916  1.00  0.00    -0.011 C  
ENDBRANCH   5   7
ENDBRANCH   3   5
BRANCH   3  10
HETATM   10  O   UNL     1      -9.818   4.264  70.012  1.00  0.00    -0.215 OA 
BRANCH  10  11
HETATM   11  C   UNL     1     -10.399   5.406  70.516  1.00  0.00    -0.274 A  
HETATM   12  C   UNL     1     -11.419   6.096  69.862  1.00  0.00    -0.371 A  
HETATM   13  C   UNL     1     -11.857   7.341  70.323  1.00  0.00    -0.109 A  
HETATM   14  C   UNL     1     -11.338   7.862  71.502  1.00  0.00    -0.256 A  
HETATM   15  C   UNL     1     -10.385   7.150  72.219  1.00  0.00    -0.226 A  
HETATM   16 CL   UNL     1     -11.890   9.386  72.072  1.00  0.00    -0.392 Cl 
HETATM   17  C   UNL     1      -9.905   5.930  71.719  1.00  0.00    -0.163 A  
HETATM   18 CL   UNL     1      -8.716   5.088  72.644  1.00  0.00    -0.119 Cl 
ENDBRANCH  10  11
ENDBRANCH   3  10
ENDBRANCH   2   3
TORSDOF 5
ENDMDL
MODEL      216
REMARK 921   NORMALIZED FREE ENERGY PREDICTED BY IDOCK:   -2.49 KCAL/MOL
REMARK 922        TOTAL FREE ENERGY PREDICTED BY IDOCK:   -3.64 KCAL/MOL
REMARK 923 INTER-LIGAND FREE ENERGY PREDICTED BY IDOCK:   -3.19 KCAL/MOL
REMARK 924 INTRA-LIGAND FREE ENERGY PREDICTED BY IDOCK:   -0.45 KCAL/MOL
REMARK 927      BINDING AFFINITY PREDICTED BY RF-SCORE:    0.00 PKD
ROOT
HETATM    1  C   UNL     1     -10.071   6.864  70.731  1.00  0.00    -0.194 C  
HETATM    2  O   UNL     1      -8.892   7.564  70.376  1.00  0.00    -0.143 OA 
ENDROOT
BRANCH   2   3
HETATM    3  P   UNL     1      -8.570   7.956  68.723  1.00  0.00    -0.127 P  
HETATM    4  S   UNL     1      -6.773   8.744  69.198  1.00  0.00    -0.051 S  
BRANCH   3   5
HETATM    5  N   UNL     1      -8.378   6.279  68.464  1.00  0.00    -0.115 NA 
HETATM    6  H   UNL     1      -8.004   5.718  69.230  1.00  0.00     0.000 HD 
BRANCH   5   7
HETATM    7  C   UNL     1      -8.716   5.594  67.213  1.00  0.00    -0.107 C  
HETATM    8  C   UNL     1      -7.477   4.922  66.617  1.00  0.00    -0.087 C  
HETATM    9  C   UNL     1      -9.819   4.544  67.385  1.00  0.00    -0.204 C  
ENDBRANCH   5   7
ENDBRANCH   3   5
BRANCH   3  10
HETATM   10  O   UNL     1      -8.248   8.349  67.069  1.00  0.00    -0.106 OA 
BRANCH  10  11
HETATM   11  C   UNL     1      -8.944   9.340  66.416  1.00  0.00    -0.154 A  
HETATM   12  C   UNL     1      -9.916  10.126  67.036  1.00  0.00    -0.249 A  
HETATM   13  C   UNL     1     -10.717  10.999  66.294  1.00  0.00    -0.273 A  
HETATM   14  C   UNL     1     -10.486  11.159  64.933  1.00  0.00    -0.308 A  
HETATM   15  C   UNL     1      -9.466  10.453  64.311  1.00  0.00    -0.349 A  
HETATM   16 CL   UNL     1     -11.465  12.244  64.029  1.00  0.00    -0.441 Cl 
HETATM   17  C   UNL     1      -8.704   9.533  65.048  1.00  0.00    -0.177 A  
HETATM   18 CL   UNL     1      -7.451   8.677  64.227  1.00  0.00    -0.105 Cl 
ENDBRANCH  10  11
ENDBRANCH   3  10
ENDBRANCH   2   3
TORSDOF 5
ENDMDL
MODEL      217
REMARK 921   NORMALIZED FREE ENERGY PREDICTED BY IDOCK:   -2.49 KCAL/MOL
REMARK 922        TOTAL FREE ENERGY PREDICTED BY IDOCK:   -3.63 KCAL/MOL
REMARK 923 INTER-LIGAND FREE ENERGY PREDICTED BY IDOCK:   -4.53 KCAL/MOL
REMARK 924 INTRA-LIGAND FREE ENERGY PREDICTED BY IDOCK:    0.89 KCAL/MOL
REMARK 927      BINDING AFFINITY PREDICTED BY RF-SCORE:    0.00 PKD
ROOT
HETATM    1  C   UNL     1     -10.154  10.504  65.004  1.00  0.00    -0.321 C  
HETATM    2  O   UNL     1      -9.546  10.123  66.225  1.00  0.00    -0.174 OA 
ENDROOT
BRANCH   2   3
HETATM    3  P   UNL     1     -10.398  10.296  67.720  1.00  0.00    -0.239 P  
HETATM    4  S   UNL     1     -10.468   8.295  67.981  1.00  0.00    -0.140 S  
BRANCH   3   5
HETATM    5  N   UNL     1      -8.933  10.880  68.375  1.00  0.00    -0.147 NA 
HETATM    6  H   UNL     1      -8.325  10.215  68.852  1.00  0.00     0.000 HD 
BRANCH   5   7
HETATM    7  C   UNL     1      -8.493  12.277  68.295  1.00  0.00    -0.173 C  
HETATM    8  C   UNL     1      -7.297  12.409  67.348  1.00  0.00    -0.149 C  
HETATM    9  C   UNL     1      -9.603  13.227  67.834  1.00  0.00    -0.217 C  
ENDBRANCH   5   7
ENDBRANCH   3   5
BRANCH   3  10
HETATM   10  O   UNL     1     -11.251  10.470  69.215  1.00  0.00    -0.231 OA 
BRANCH  10  11
HETATM   11  C   UNL     1     -10.868   9.786  70.346  1.00  0.00    -0.311 A  
HETATM   12  C   UNL     1      -9.541   9.464  70.630  1.00  0.00    -0.331 A  
HETATM   13  C   UNL     1      -9.218   8.621  71.697  1.00  0.00    -0.326 A  
HETATM   14  C   UNL     1     -10.219   8.168  72.548  1.00  0.00    -0.313 A  
HETATM   15  C   UNL     1     -11.538   8.549  72.337  1.00  0.00    -0.425 A  
HETATM   16 CL   UNL     1      -9.814   7.144  73.867  1.00  0.00    -0.336 Cl 
HETATM   17  C   UNL     1     -11.864   9.346  71.229  1.00  0.00    -0.360 A  
HETATM   18 CL   UNL     1     -13.518   9.787  71.008  1.00  0.00    -0.334 Cl 
ENDBRANCH  10  11
ENDBRANCH   3  10
ENDBRANCH   2   3
TORSDOF 5
ENDMDL
MODEL      218
REMARK 921   NORMALIZED FREE ENERGY PREDICTED BY IDOCK:   -2.49 KCAL/MOL
REMARK 922        TOTAL FREE ENERGY PREDICTED BY IDOCK:   -3.63 KCAL/MOL
REMARK 923 INTER-LIGAND FREE ENERGY PREDICTED BY IDOCK:   -3.23 KCAL/MOL
REMARK 924 INTRA-LIGAND FREE ENERGY PREDICTED BY IDOCK:   -0.40 KCAL/MOL
REMARK 927      BINDING AFFINITY PREDICTED BY RF-SCORE:    0.00 PKD
ROOT
HETATM    1  C   UNL     1      -6.021   3.302  71.605  1.00  0.00    -0.013 C  
HETATM    2  O   UNL     1      -6.761   2.752  70.531  1.00  0.00    -0.031 OA 
ENDROOT
BRANCH   2   3
HETATM    3  P   UNL     1      -8.281   3.437  70.071  1.00  0.00    -0.049 P  
HETATM    4  S   UNL     1      -7.388   5.115  69.392  1.00  0.00    -0.058 S  
BRANCH   3   5
HETATM    5  N   UNL     1      -8.308   2.285  68.810  1.00  0.00    -0.055 NA 
HETATM    6  H   UNL     1      -8.661   1.352  69.024  1.00  0.00     0.000 HD 
BRANCH   5   7
HETATM    7  C   UNL     1      -7.858   2.551  67.440  1.00  0.00    -0.069 C  
HETATM    8  C   UNL     1      -6.618   1.716  67.111  1.00  0.00    -0.031 C  
HETATM    9  C   UNL     1      -8.939   2.275  66.391  1.00  0.00    -0.118 C  
ENDBRANCH   5   7
ENDBRANCH   3   5
BRANCH   3  10
HETATM   10  O   UNL     1      -9.802   4.122  69.612  1.00  0.00    -0.217 OA 
BRANCH  10  11
HETATM   11  C   UNL     1     -10.352   5.178  70.301  1.00  0.00    -0.261 A  
HETATM   12  C   UNL     1     -10.330   5.278  71.692  1.00  0.00    -0.281 A  
HETATM   13  C   UNL     1     -11.051   6.277  72.354  1.00  0.00    -0.307 A  
HETATM   14  C   UNL     1     -11.726   7.243  71.619  1.00  0.00    -0.284 A  
HETATM   15  C   UNL     1     -11.688   7.217  70.231  1.00  0.00    -0.226 A  
HETATM   16 CL   UNL     1     -12.598   8.477  72.438  1.00  0.00    -0.431 Cl 
HETATM   17  C   UNL     1     -11.015   6.177  69.572  1.00  0.00    -0.393 A  
HETATM   18 CL   UNL     1     -11.002   6.186  67.846  1.00  0.00    -0.410 Cl 
ENDBRANCH  10  11
ENDBRANCH   3  10
ENDBRANCH   2   3
TORSDOF 5
ENDMDL
MODEL      219
REMARK 921   NORMALIZED FREE ENERGY PREDICTED BY IDOCK:   -2.46 KCAL/MOL
REMARK 922        TOTAL FREE ENERGY PREDICTED BY IDOCK:   -3.60 KCAL/MOL
REMARK 923 INTER-LIGAND FREE ENERGY PREDICTED BY IDOCK:   -4.19 KCAL/MOL
REMARK 924 INTRA-LIGAND FREE ENERGY PREDICTED BY IDOCK:    0.59 KCAL/MOL
REMARK 927      BINDING AFFINITY PREDICTED BY RF-SCORE:    0.00 PKD
ROOT
HETATM    1  C   UNL     1      -8.761   7.536  65.860  1.00  0.00    -0.147 C  
HETATM    2  O   UNL     1      -9.180   8.625  66.662  1.00  0.00    -0.158 OA 
ENDROOT
BRANCH   2   3
HETATM    3  P   UNL     1      -9.557  10.151  65.941  1.00  0.00    -0.255 P  
HETATM    4  S   UNL     1     -10.917  10.561  67.375  1.00  0.00    -0.249 S  
BRANCH   3   5
HETATM    5  N   UNL     1      -8.023  10.675  66.478  1.00  0.00    -0.132 NA 
HETATM    6  H   UNL     1      -7.556  11.408  65.945  1.00  0.00     0.000 HD 
BRANCH   5   7
HETATM    7  C   UNL     1      -7.334  10.139  67.657  1.00  0.00    -0.089 C  
HETATM    8  C   UNL     1      -5.859   9.876  67.343  1.00  0.00    -0.050 C  
HETATM    9  C   UNL     1      -7.430  11.062  68.876  1.00  0.00    -0.123 C  
ENDBRANCH   5   7
ENDBRANCH   3   5
BRANCH   3  10
HETATM   10  O   UNL     1      -9.935  11.677  65.218  1.00  0.00    -0.240 OA 
BRANCH  10  11
HETATM   11  C   UNL     1     -10.307  12.761  65.979  1.00  0.00    -0.276 A  
HETATM   12  C   UNL     1      -9.432  13.429  66.836  1.00  0.00    -0.253 A  
HETATM   13  C   UNL     1      -9.896  14.411  67.716  1.00  0.00    -0.221 A  
HETATM   14  C   UNL     1     -11.230  14.798  67.678  1.00  0.00    -0.323 A  
HETATM   15  C   UNL     1     -12.101  14.210  66.771  1.00  0.00    -0.474 A  
HETATM   16 CL   UNL     1     -11.791  16.016  68.753  1.00  0.00    -0.319 Cl 
HETATM   17  C   UNL     1     -11.644  13.182  65.931  1.00  0.00    -0.354 A  
HETATM   18 CL   UNL     1     -12.767  12.480  64.826  1.00  0.00    -0.526 Cl 
ENDBRANCH  10  11
ENDBRANCH   3  10
ENDBRANCH   2   3
TORSDOF 5
ENDMDL
MODEL      220
REMARK 921   NORMALIZED FREE ENERGY PREDICTED BY IDOCK:   -2.43 KCAL/MOL
REMARK 922        TOTAL FREE ENERGY PREDICTED BY IDOCK:   -3.57 KCAL/MOL
REMARK 923 INTER-LIGAND FREE ENERGY PREDICTED BY IDOCK:   -4.55 KCAL/MOL
REMARK 924 INTRA-LIGAND FREE ENERGY PREDICTED BY IDOCK:    0.99 KCAL/MOL
REMARK 927      BINDING AFFINITY PREDICTED BY RF-SCORE:    0.00 PKD
ROOT
HETATM    1  C   UNL     1     -12.051   9.734  71.304  1.00  0.00    -0.382 C  
HETATM    2  O   UNL     1     -10.726   9.511  70.854  1.00  0.00    -0.285 OA 
ENDROOT
BRANCH   2   3
HETATM    3  P   UNL     1     -10.254   9.972  69.256  1.00  0.00    -0.245 P  
HETATM    4  S   UNL     1      -8.300   9.711  69.694  1.00  0.00    -0.185 S  
BRANCH   3   5
HETATM    5  N   UNL     1     -10.901   8.478  68.739  1.00  0.00    -0.432 NA 
HETATM    6  H   UNL     1     -11.800   8.489  68.258  1.00  0.00     0.000 HD 
BRANCH   5   7
HETATM    7  C   UNL     1     -10.246   7.182  68.942  1.00  0.00    -0.186 C  
HETATM    8  C   UNL     1      -8.891   7.147  68.230  1.00  0.00    -0.127 C  
HETATM    9  C   UNL     1     -10.043   6.840  70.421  1.00  0.00    -0.200 C  
ENDBRANCH   5   7
ENDBRANCH   3   5
BRANCH   3  10
HETATM   10  O   UNL     1      -9.782  10.434  67.657  1.00  0.00    -0.164 OA 
BRANCH  10  11
HETATM   11  C   UNL     1     -10.246  11.592  67.076  1.00  0.00    -0.212 A  
HETATM   12  C   UNL     1     -11.582  11.791  66.731  1.00  0.00    -0.287 A  
HETATM   13  C   UNL     1     -11.976  12.907  65.987  1.00  0.00    -0.505 A  
HETATM   14  C   UNL     1     -11.043  13.885  65.664  1.00  0.00    -0.298 A  
HETATM   15  C   UNL     1      -9.723  13.753  66.075  1.00  0.00    -0.255 A  
HETATM   16 CL   UNL     1     -11.535  15.263  64.763  1.00  0.00    -0.397 Cl 
HETATM   17  C   UNL     1      -9.321  12.600  66.768  1.00  0.00    -0.232 A  
HETATM   18 CL   UNL     1      -7.669  12.481  67.251  1.00  0.00    -0.162 Cl 
ENDBRANCH  10  11
ENDBRANCH   3  10
ENDBRANCH   2   3
TORSDOF 5
ENDMDL
MODEL      221
REMARK 921   NORMALIZED FREE ENERGY PREDICTED BY IDOCK:   -2.42 KCAL/MOL
REMARK 922        TOTAL FREE ENERGY PREDICTED BY IDOCK:   -3.55 KCAL/MOL
REMARK 923 INTER-LIGAND FREE ENERGY PREDICTED BY IDOCK:   -4.67 KCAL/MOL
REMARK 924 INTRA-LIGAND FREE ENERGY PREDICTED BY IDOCK:    1.11 KCAL/MOL
REMARK 927      BINDING AFFINITY PREDICTED BY RF-SCORE:    0.00 PKD
ROOT
HETATM    1  C   UNL     1     -10.578  18.880  66.062  1.00  0.00    -0.403 C  
HETATM    2  O   UNL     1     -10.240  19.012  67.431  1.00  0.00    -0.347 OA 
ENDROOT
BRANCH   2   3
HETATM    3  P   UNL     1      -9.728  17.636  68.344  1.00  0.00    -0.351 P  
HETATM    4  S   UNL     1     -10.046  16.403  66.777  1.00  0.00    -0.294 S  
BRANCH   3   5
HETATM    5  N   UNL     1      -8.146  18.269  68.227  1.00  0.00    -0.289 NA 
HETATM    6  H   UNL     1      -7.398  17.634  67.948  1.00  0.00     0.000 HD 
BRANCH   5   7
HETATM    7  C   UNL     1      -7.794  19.665  68.501  1.00  0.00    -0.323 C  
HETATM    8  C   UNL     1      -6.833  19.753  69.689  1.00  0.00    -0.310 C  
HETATM    9  C   UNL     1      -7.164  20.371  67.295  1.00  0.00    -0.345 C  
ENDBRANCH   5   7
ENDBRANCH   3   5
BRANCH   3  10
HETATM   10  O   UNL     1      -9.217  16.259  69.258  1.00  0.00    -0.250 OA 
BRANCH  10  11
HETATM   11  C   UNL     1      -9.257  14.989  68.730  1.00  0.00    -0.200 A  
HETATM   12  C   UNL     1      -8.151  14.367  68.152  1.00  0.00    -0.137 A  
HETATM   13  C   UNL     1      -8.281  13.151  67.475  1.00  0.00    -0.183 A  
HETATM   14  C   UNL     1      -9.509  12.501  67.453  1.00  0.00    -0.184 A  
HETATM   15  C   UNL     1     -10.604  13.058  68.097  1.00  0.00    -0.257 A  
HETATM   16 CL   UNL     1      -9.659  10.999  66.631  1.00  0.00    -0.209 Cl 
HETATM   17  C   UNL     1     -10.483  14.308  68.723  1.00  0.00    -0.249 A  
HETATM   18 CL   UNL     1     -11.876  14.960  69.506  1.00  0.00    -0.336 Cl 
ENDBRANCH  10  11
ENDBRANCH   3  10
ENDBRANCH   2   3
TORSDOF 5
ENDMDL
MODEL      222
REMARK 921   NORMALIZED FREE ENERGY PREDICTED BY IDOCK:   -2.40 KCAL/MOL
REMARK 922        TOTAL FREE ENERGY PREDICTED BY IDOCK:   -3.53 KCAL/MOL
REMARK 923 INTER-LIGAND FREE ENERGY PREDICTED BY IDOCK:   -4.46 KCAL/MOL
REMARK 924 INTRA-LIGAND FREE ENERGY PREDICTED BY IDOCK:    0.94 KCAL/MOL
REMARK 927      BINDING AFFINITY PREDICTED BY RF-SCORE:    0.00 PKD
ROOT
HETATM    1  C   UNL     1      -9.911  10.622  65.570  1.00  0.00    -0.272 C  
HETATM    2  O   UNL     1     -10.396  11.953  65.584  1.00  0.00    -0.231 OA 
ENDROOT
BRANCH   2   3
HETATM    3  P   UNL     1      -9.669  13.140  66.610  1.00  0.00    -0.262 P  
HETATM    4  S   UNL     1     -10.771  12.536  68.190  1.00  0.00    -0.236 S  
BRANCH   3   5
HETATM    5  N   UNL     1      -8.250  12.189  66.541  1.00  0.00    -0.395 NA 
HETATM    6  H   UNL     1      -8.025  11.734  65.657  1.00  0.00     0.000 HD 
BRANCH   5   7
HETATM    7  C   UNL     1      -7.337  11.987  67.670  1.00  0.00    -0.121 C  
HETATM    8  C   UNL     1      -7.227  10.499  68.012  1.00  0.00    -0.087 C  
HETATM    9  C   UNL     1      -5.934  12.546  67.410  1.00  0.00    -0.147 C  
ENDBRANCH   5   7
ENDBRANCH   3   5
BRANCH   3  10
HETATM   10  O   UNL     1      -8.941  14.327  67.637  1.00  0.00    -0.178 OA 
BRANCH  10  11
HETATM   11  C   UNL     1      -9.319  15.650  67.587  1.00  0.00    -0.206 A  
HETATM   12  C   UNL     1      -9.233  16.510  68.681  1.00  0.00    -0.238 A  
HETATM   13  C   UNL     1      -9.788  17.792  68.635  1.00  0.00    -0.359 A  
HETATM   14  C   UNL     1     -10.353  18.257  67.453  1.00  0.00    -0.392 A  
HETATM   15  C   UNL     1     -10.370  17.450  66.324  1.00  0.00    -0.330 A  
HETATM   16 CL   UNL     1     -11.021  19.839  67.398  1.00  0.00    -0.451 Cl 
HETATM   17  C   UNL     1      -9.866  16.142  66.394  1.00  0.00    -0.284 A  
HETATM   18 CL   UNL     1      -9.915  15.178  64.963  1.00  0.00    -0.277 Cl 
ENDBRANCH  10  11
ENDBRANCH   3  10
ENDBRANCH   2   3
TORSDOF 5
ENDMDL
MODEL      223
REMARK 921   NORMALIZED FREE ENERGY PREDICTED BY IDOCK:   -2.40 KCAL/MOL
REMARK 922        TOTAL FREE ENERGY PREDICTED BY IDOCK:   -3.52 KCAL/MOL
REMARK 923 INTER-LIGAND FREE ENERGY PREDICTED BY IDOCK:   -4.50 KCAL/MOL
REMARK 924 INTRA-LIGAND FREE ENERGY PREDICTED BY IDOCK:    0.98 KCAL/MOL
REMARK 927      BINDING AFFINITY PREDICTED BY RF-SCORE:    0.00 PKD
ROOT
HETATM    1  C   UNL     1     -12.295  14.146  64.058  1.00  0.00    -0.275 C  
HETATM    2  O   UNL     1     -11.825  14.730  65.260  1.00  0.00    -0.340 OA 
ENDROOT
BRANCH   2   3
HETATM    3  P   UNL     1     -11.882  13.845  66.745  1.00  0.00    -0.444 P  
HETATM    4  S   UNL     1     -11.308  12.143  65.823  1.00  0.00    -0.347 S  
BRANCH   3   5
HETATM    5  N   UNL     1     -10.485  14.714  67.203  1.00  0.00    -0.266 NA 
HETATM    6  H   UNL     1      -9.582  14.247  67.113  1.00  0.00     0.000 HD 
BRANCH   5   7
HETATM    7  C   UNL     1     -10.499  16.087  67.717  1.00  0.00    -0.298 C  
HETATM    8  C   UNL     1     -10.812  16.096  69.216  1.00  0.00    -0.310 C  
HETATM    9  C   UNL     1      -9.181  16.829  67.477  1.00  0.00    -0.215 C  
ENDBRANCH   5   7
ENDBRANCH   3   5
BRANCH   3  10
HETATM   10  O   UNL     1     -11.940  12.960  68.231  1.00  0.00    -0.332 OA 
BRANCH  10  11
HETATM   11  C   UNL     1     -10.903  12.145  68.623  1.00  0.00    -0.235 A  
HETATM   12  C   UNL     1      -9.582  12.344  68.223  1.00  0.00    -0.211 A  
HETATM   13  C   UNL     1      -8.594  11.395  68.503  1.00  0.00    -0.150 A  
HETATM   14  C   UNL     1      -8.906  10.280  69.271  1.00  0.00    -0.177 A  
HETATM   15  C   UNL     1     -10.195  10.106  69.756  1.00  0.00    -0.286 A  
HETATM   16 CL   UNL     1      -7.685   9.123  69.624  1.00  0.00    -0.077 Cl 
HETATM   17  C   UNL     1     -11.197  11.030  69.421  1.00  0.00    -0.268 A  
HETATM   18 CL   UNL     1     -12.784  10.765  70.044  1.00  0.00    -0.270 Cl 
ENDBRANCH  10  11
ENDBRANCH   3  10
ENDBRANCH   2   3
TORSDOF 5
ENDMDL
MODEL      224
REMARK 921   NORMALIZED FREE ENERGY PREDICTED BY IDOCK:   -2.36 KCAL/MOL
REMARK 922        TOTAL FREE ENERGY PREDICTED BY IDOCK:   -3.47 KCAL/MOL
REMARK 923 INTER-LIGAND FREE ENERGY PREDICTED BY IDOCK:   -3.02 KCAL/MOL
REMARK 924 INTRA-LIGAND FREE ENERGY PREDICTED BY IDOCK:   -0.45 KCAL/MOL
REMARK 927      BINDING AFFINITY PREDICTED BY RF-SCORE:    0.00 PKD
ROOT
HETATM    1  C   UNL     1      -6.874   3.698  74.124  1.00  0.00    -0.046 C  
HETATM    2  O   UNL     1      -7.380   3.180  72.907  1.00  0.00    -0.043 OA 
ENDROOT
BRANCH   2   3
HETATM    3  P   UNL     1      -8.457   4.120  71.935  1.00  0.00    -0.107 P  
HETATM    4  S   UNL     1     -10.038   2.995  72.491  1.00  0.00    -0.150 S  
BRANCH   3   5
HETATM    5  N   UNL     1      -8.247   5.369  73.082  1.00  0.00    -0.114 NA 
HETATM    6  H   UNL     1      -7.410   5.344  73.665  1.00  0.00     0.000 HD 
BRANCH   5   7
HETATM    7  C   UNL     1      -9.190   6.473  73.281  1.00  0.00    -0.128 C  
HETATM    8  C   UNL     1     -10.076   6.209  74.501  1.00  0.00    -0.345 C  
HETATM    9  C   UNL     1      -8.496   7.828  73.452  1.00  0.00    -0.248 C  
ENDBRANCH   5   7
ENDBRANCH   3   5
BRANCH   3  10
HETATM   10  O   UNL     1      -9.535   5.061  70.962  1.00  0.00    -0.148 OA 
BRANCH  10  11
HETATM   11  C   UNL     1      -9.699   4.808  69.619  1.00  0.00    -0.202 A  
HETATM   12  C   UNL     1      -8.985   3.825  68.934  1.00  0.00    -0.178 A  
HETATM   13  C   UNL     1      -9.057   3.720  67.542  1.00  0.00    -0.185 A  
HETATM   14  C   UNL     1      -9.923   4.543  66.832  1.00  0.00    -0.198 A  
HETATM   15  C   UNL     1     -10.711   5.469  67.502  1.00  0.00    -0.211 A  
HETATM   16 CL   UNL     1     -10.019   4.400  65.122  1.00  0.00    -0.202 Cl 
HETATM   17  C   UNL     1     -10.590   5.612  68.893  1.00  0.00    -0.233 A  
HETATM   18 CL   UNL     1     -11.588   6.781  69.677  1.00  0.00    -0.284 Cl 
ENDBRANCH  10  11
ENDBRANCH   3  10
ENDBRANCH   2   3
TORSDOF 5
ENDMDL
MODEL      225
REMARK 921   NORMALIZED FREE ENERGY PREDICTED BY IDOCK:   -2.36 KCAL/MOL
REMARK 922        TOTAL FREE ENERGY PREDICTED BY IDOCK:   -3.47 KCAL/MOL
REMARK 923 INTER-LIGAND FREE ENERGY PREDICTED BY IDOCK:   -3.24 KCAL/MOL
REMARK 924 INTRA-LIGAND FREE ENERGY PREDICTED BY IDOCK:   -0.23 KCAL/MOL
REMARK 927      BINDING AFFINITY PREDICTED BY RF-SCORE:    0.00 PKD
ROOT
HETATM    1  C   UNL     1     -10.247   9.060  71.478  1.00  0.00    -0.344 C  
HETATM    2  O   UNL     1      -9.723   9.820  70.404  1.00  0.00    -0.255 OA 
ENDROOT
BRANCH   2   3
HETATM    3  P   UNL     1     -10.026   9.351  68.768  1.00  0.00    -0.193 P  
HETATM    4  S   UNL     1     -11.383  10.828  68.533  1.00  0.00    -0.290 S  
BRANCH   3   5
HETATM    5  N   UNL     1      -8.477   9.972  68.405  1.00  0.00    -0.110 NA 
HETATM    6  H   UNL     1      -7.665   9.461  68.752  1.00  0.00     0.000 HD 
BRANCH   5   7
HETATM    7  C   UNL     1      -8.239  11.192  67.626  1.00  0.00    -0.118 C  
HETATM    8  C   UNL     1      -7.991  12.382  68.556  1.00  0.00    -0.110 C  
HETATM    9  C   UNL     1      -7.060  11.061  66.657  1.00  0.00    -0.139 C  
ENDBRANCH   5   7
ENDBRANCH   3   5
BRANCH   3  10
HETATM   10  O   UNL     1     -10.330   8.881  67.131  1.00  0.00    -0.249 OA 
BRANCH  10  11
HETATM   11  C   UNL     1      -9.660   7.830  66.548  1.00  0.00    -0.201 A  
HETATM   12  C   UNL     1      -8.647   7.999  65.604  1.00  0.00    -0.167 A  
HETATM   13  C   UNL     1      -8.117   6.906  64.913  1.00  0.00    -0.109 A  
HETATM   14  C   UNL     1      -8.534   5.619  65.232  1.00  0.00    -0.147 A  
HETATM   15  C   UNL     1      -9.477   5.419  66.231  1.00  0.00    -0.169 A  
HETATM   16 CL   UNL     1      -7.868   4.278  64.389  1.00  0.00    -0.084 Cl 
HETATM   17  C   UNL     1     -10.051   6.524  66.879  1.00  0.00    -0.192 A  
HETATM   18 CL   UNL     1     -11.222   6.223  68.109  1.00  0.00    -0.363 Cl 
ENDBRANCH  10  11
ENDBRANCH   3  10
ENDBRANCH   2   3
TORSDOF 5
ENDMDL
MODEL      226
REMARK 921   NORMALIZED FREE ENERGY PREDICTED BY IDOCK:   -2.33 KCAL/MOL
REMARK 922        TOTAL FREE ENERGY PREDICTED BY IDOCK:   -3.43 KCAL/MOL
REMARK 923 INTER-LIGAND FREE ENERGY PREDICTED BY IDOCK:   -3.11 KCAL/MOL
REMARK 924 INTRA-LIGAND FREE ENERGY PREDICTED BY IDOCK:   -0.33 KCAL/MOL
REMARK 927      BINDING AFFINITY PREDICTED BY RF-SCORE:    0.00 PKD
ROOT
HETATM    1  C   UNL     1      -9.154   3.808  70.128  1.00  0.00    -0.125 C  
HETATM    2  O   UNL     1     -10.348   4.568  70.070  1.00  0.00    -0.144 OA 
ENDROOT
BRANCH   2   3
HETATM    3  P   UNL     1     -10.285   6.287  69.895  1.00  0.00    -0.217 P  
HETATM    4  S   UNL     1     -10.519   6.151  67.894  1.00  0.00    -0.259 S  
BRANCH   3   5
HETATM    5  N   UNL     1     -11.830   6.320  70.623  1.00  0.00    -0.241 NA 
HETATM    6  H   UNL     1     -12.611   5.924  70.101  1.00  0.00     0.000 HD 
BRANCH   5   7
HETATM    7  C   UNL     1     -12.105   6.881  71.949  1.00  0.00    -0.333 C  
HETATM    8  C   UNL     1     -10.876   6.748  72.853  1.00  0.00    -0.304 C  
HETATM    9  C   UNL     1     -12.531   8.352  71.899  1.00  0.00    -0.390 C  
ENDBRANCH   5   7
ENDBRANCH   3   5
BRANCH   3  10
HETATM   10  O   UNL     1     -10.221   8.007  69.720  1.00  0.00    -0.197 OA 
BRANCH  10  11
HETATM   11  C   UNL     1      -9.037   8.661  69.469  1.00  0.00    -0.146 A  
HETATM   12  C   UNL     1      -7.804   8.220  69.948  1.00  0.00    -0.102 A  
HETATM   13  C   UNL     1      -6.656   9.007  69.816  1.00  0.00    -0.045 A  
HETATM   14  C   UNL     1      -6.718  10.205  69.116  1.00  0.00    -0.056 A  
HETATM   15  C   UNL     1      -7.916  10.623  68.553  1.00  0.00    -0.122 A  
HETATM   16 CL   UNL     1      -5.301  11.162  68.945  1.00  0.00    -0.041 Cl 
HETATM   17  C   UNL     1      -9.079   9.859  68.741  1.00  0.00    -0.147 A  
HETATM   18 CL   UNL     1     -10.543  10.424  68.025  1.00  0.00    -0.238 Cl 
ENDBRANCH  10  11
ENDBRANCH   3  10
ENDBRANCH   2   3
TORSDOF 5
ENDMDL
MODEL      227
REMARK 921   NORMALIZED FREE ENERGY PREDICTED BY IDOCK:   -2.33 KCAL/MOL
REMARK 922        TOTAL FREE ENERGY PREDICTED BY IDOCK:   -3.43 KCAL/MOL
REMARK 923 INTER-LIGAND FREE ENERGY PREDICTED BY IDOCK:   -3.06 KCAL/MOL
REMARK 924 INTRA-LIGAND FREE ENERGY PREDICTED BY IDOCK:   -0.37 KCAL/MOL
REMARK 927      BINDING AFFINITY PREDICTED BY RF-SCORE:    0.00 PKD
ROOT
HETATM    1  C   UNL     1      -5.537   4.732  66.425  1.00  0.00    -0.017 C  
HETATM    2  O   UNL     1      -6.701   4.571  65.636  1.00  0.00    -0.050 OA 
ENDROOT
BRANCH   2   3
HETATM    3  P   UNL     1      -8.188   5.319  66.105  1.00  0.00    -0.115 P  
HETATM    4  S   UNL     1      -7.960   6.775  64.725  1.00  0.00    -0.100 S  
BRANCH   3   5
HETATM    5  N   UNL     1      -8.975   3.992  65.372  1.00  0.00    -0.126 NA 
HETATM    6  H   UNL     1      -9.200   3.188  65.958  1.00  0.00     0.000 HD 
BRANCH   5   7
HETATM    7  C   UNL     1      -9.347   3.933  63.955  1.00  0.00    -0.149 C  
HETATM    8  C   UNL     1      -8.468   2.926  63.210  1.00  0.00    -0.086 C  
HETATM    9  C   UNL     1     -10.819   3.569  63.739  1.00  0.00    -0.205 C  
ENDBRANCH   5   7
ENDBRANCH   3   5
BRANCH   3  10
HETATM   10  O   UNL     1      -9.676   6.068  66.575  1.00  0.00    -0.154 OA 
BRANCH  10  11
HETATM   11  C   UNL     1     -10.005   6.245  67.899  1.00  0.00    -0.133 A  
HETATM   12  C   UNL     1      -9.971   5.215  68.838  1.00  0.00    -0.245 A  
HETATM   13  C   UNL     1     -10.479   5.399  70.128  1.00  0.00    -0.361 A  
HETATM   14  C   UNL     1     -10.941   6.651  70.515  1.00  0.00    -0.286 A  
HETATM   15  C   UNL     1     -10.903   7.715  69.624  1.00  0.00    -0.195 A  
HETATM   16 CL   UNL     1     -11.551   6.875  72.106  1.00  0.00    -0.307 Cl 
HETATM   17  C   UNL     1     -10.449   7.509  68.312  1.00  0.00    -0.180 A  
HETATM   18 CL   UNL     1     -10.425   8.863  67.242  1.00  0.00    -0.352 Cl 
ENDBRANCH  10  11
ENDBRANCH   3  10
ENDBRANCH   2   3
TORSDOF 5
ENDMDL
MODEL      228
REMARK 921   NORMALIZED FREE ENERGY PREDICTED BY IDOCK:   -2.31 KCAL/MOL
REMARK 922        TOTAL FREE ENERGY PREDICTED BY IDOCK:   -3.40 KCAL/MOL
REMARK 923 INTER-LIGAND FREE ENERGY PREDICTED BY IDOCK:   -3.01 KCAL/MOL
REMARK 924 INTRA-LIGAND FREE ENERGY PREDICTED BY IDOCK:   -0.39 KCAL/MOL
REMARK 927      BINDING AFFINITY PREDICTED BY RF-SCORE:    0.00 PKD
ROOT
HETATM    1  C   UNL     1      -6.901  15.913  67.803  1.00  0.00    -0.153 C  
HETATM    2  O   UNL     1      -8.228  15.461  68.003  1.00  0.00    -0.139 OA 
ENDROOT
BRANCH   2   3
HETATM    3  P   UNL     1      -8.673  13.840  67.596  1.00  0.00    -0.213 P  
HETATM    4  S   UNL     1     -10.225  13.879  68.886  1.00  0.00    -0.059 S  
BRANCH   3   5
HETATM    5  N   UNL     1      -9.196  14.464  66.094  1.00  0.00    -0.510 NA 
HETATM    6  H   UNL     1      -8.504  14.922  65.502  1.00  0.00     0.000 HD 
BRANCH   5   7
HETATM    7  C   UNL     1     -10.575  14.382  65.603  1.00  0.00    -0.329 C  
HETATM    8  C   UNL     1     -11.106  15.776  65.260  1.00  0.00    -0.280 C  
HETATM    9  C   UNL     1     -10.719  13.476  64.376  1.00  0.00    -0.402 C  
ENDBRANCH   5   7
ENDBRANCH   3   5
BRANCH   3  10
HETATM   10  O   UNL     1      -9.116  12.218  67.189  1.00  0.00    -0.180 OA 
BRANCH  10  11
HETATM   11  C   UNL     1      -8.177  11.216  67.101  1.00  0.00    -0.137 A  
HETATM   12  C   UNL     1      -6.925  11.393  66.513  1.00  0.00    -0.062 A  
HETATM   13  C   UNL     1      -6.074  10.306  66.290  1.00  0.00    -0.082 A  
HETATM   14  C   UNL     1      -6.435   9.043  66.742  1.00  0.00    -0.064 A  
HETATM   15  C   UNL     1      -7.639   8.859  67.410  1.00  0.00    -0.089 A  
HETATM   16 CL   UNL     1      -5.379   7.713  66.478  1.00  0.00    -0.024 Cl 
HETATM   17  C   UNL     1      -8.516   9.941  67.576  1.00  0.00    -0.115 A  
HETATM   18 CL   UNL     1     -10.001   9.659  68.408  1.00  0.00    -0.170 Cl 
ENDBRANCH  10  11
ENDBRANCH   3  10
ENDBRANCH   2   3
TORSDOF 5
ENDMDL
MODEL      229
REMARK 921   NORMALIZED FREE ENERGY PREDICTED BY IDOCK:   -2.22 KCAL/MOL
REMARK 922        TOTAL FREE ENERGY PREDICTED BY IDOCK:   -3.29 KCAL/MOL
REMARK 923 INTER-LIGAND FREE ENERGY PREDICTED BY IDOCK:   -2.61 KCAL/MOL
REMARK 924 INTRA-LIGAND FREE ENERGY PREDICTED BY IDOCK:   -0.68 KCAL/MOL
REMARK 927      BINDING AFFINITY PREDICTED BY RF-SCORE:    0.00 PKD
ROOT
HETATM    1  C   UNL     1      -8.918  10.299  64.766  1.00  0.00    -0.203 C  
HETATM    2  O   UNL     1      -8.939   9.479  65.921  1.00  0.00    -0.153 OA 
ENDROOT
BRANCH   2   3
HETATM    3  P   UNL     1      -8.285   7.879  65.871  1.00  0.00    -0.139 P  
HETATM    4  S   UNL     1      -6.395   8.587  65.859  1.00  0.00    -0.053 S  
BRANCH   3   5
HETATM    5  N   UNL     1      -8.799   7.724  67.493  1.00  0.00    -0.124 NA 
HETATM    6  H   UNL     1      -8.083   7.601  68.210  1.00  0.00     0.000 HD 
BRANCH   5   7
HETATM    7  C   UNL     1     -10.201   7.757  67.921  1.00  0.00    -0.206 C  
HETATM    8  C   UNL     1     -11.052   6.838  67.041  1.00  0.00    -0.369 C  
HETATM    9  C   UNL     1     -10.387   7.358  69.389  1.00  0.00    -0.211 C  
ENDBRANCH   5   7
ENDBRANCH   3   5
BRANCH   3  10
HETATM   10  O   UNL     1      -7.632   6.278  65.821  1.00  0.00    -0.080 OA 
BRANCH  10  11
HETATM   11  C   UNL     1      -8.279   5.257  65.164  1.00  0.00    -0.135 A  
HETATM   12  C   UNL     1      -8.415   5.206  63.778  1.00  0.00    -0.113 A  
HETATM   13  C   UNL     1      -9.228   4.245  63.168  1.00  0.00    -0.140 A  
HETATM   14  C   UNL     1      -9.838   3.266  63.942  1.00  0.00    -0.158 A  
HETATM   15  C   UNL     1      -9.646   3.243  65.317  1.00  0.00    -0.088 A  
HETATM   16 CL   UNL     1     -10.825   2.079  63.186  1.00  0.00    -0.208 Cl 
HETATM   17  C   UNL     1      -8.879   4.246  65.930  1.00  0.00    -0.120 A  
HETATM   18 CL   UNL     1      -8.674   4.175  67.642  1.00  0.00    -0.112 Cl 
ENDBRANCH  10  11
ENDBRANCH   3  10
ENDBRANCH   2   3
TORSDOF 5
ENDMDL
MODEL      230
REMARK 921   NORMALIZED FREE ENERGY PREDICTED BY IDOCK:   -2.22 KCAL/MOL
REMARK 922        TOTAL FREE ENERGY PREDICTED BY IDOCK:   -3.29 KCAL/MOL
REMARK 923 INTER-LIGAND FREE ENERGY PREDICTED BY IDOCK:   -3.52 KCAL/MOL
REMARK 924 INTRA-LIGAND FREE ENERGY PREDICTED BY IDOCK:    0.23 KCAL/MOL
REMARK 927      BINDING AFFINITY PREDICTED BY RF-SCORE:    0.00 PKD
ROOT
HETATM    1  C   UNL     1      -8.116   6.874  66.226  1.00  0.00    -0.112 C  
HETATM    2  O   UNL     1      -9.224   7.666  65.837  1.00  0.00    -0.115 OA 
ENDROOT
BRANCH   2   3
HETATM    3  P   UNL     1      -9.040   9.367  65.585  1.00  0.00    -0.234 P  
HETATM    4  S   UNL     1      -8.343   9.631  67.461  1.00  0.00    -0.118 S  
BRANCH   3   5
HETATM    5  N   UNL     1      -7.727   8.975  64.565  1.00  0.00    -0.111 NA 
HETATM    6  H   UNL     1      -6.845   8.711  65.005  1.00  0.00     0.000 HD 
BRANCH   5   7
HETATM    7  C   UNL     1      -7.786   8.994  63.101  1.00  0.00    -0.115 C  
HETATM    8  C   UNL     1      -7.550   7.591  62.536  1.00  0.00    -0.110 C  
HETATM    9  C   UNL     1      -9.116   9.532  62.563  1.00  0.00    -0.236 C  
ENDBRANCH   5   7
ENDBRANCH   3   5
BRANCH   3  10
HETATM   10  O   UNL     1      -8.857  11.069  65.332  1.00  0.00    -0.192 OA 
BRANCH  10  11
HETATM   11  C   UNL     1      -9.582  11.986  66.058  1.00  0.00    -0.234 A  
HETATM   12  C   UNL     1      -9.080  12.637  67.184  1.00  0.00    -0.210 A  
HETATM   13  C   UNL     1      -9.907  13.427  67.989  1.00  0.00    -0.229 A  
HETATM   14  C   UNL     1     -11.227  13.645  67.616  1.00  0.00    -0.279 A  
HETATM   15  C   UNL     1     -11.726  13.079  66.450  1.00  0.00    -0.444 A  
HETATM   16 CL   UNL     1     -12.236  14.628  68.601  1.00  0.00    -0.209 Cl 
HETATM   17  C   UNL     1     -10.908  12.238  65.679  1.00  0.00    -0.285 A  
HETATM   18 CL   UNL     1     -11.577  11.554  64.242  1.00  0.00    -0.290 Cl 
ENDBRANCH  10  11
ENDBRANCH   3  10
ENDBRANCH   2   3
TORSDOF 5
ENDMDL
MODEL      231
REMARK 921   NORMALIZED FREE ENERGY PREDICTED BY IDOCK:   -2.21 KCAL/MOL
REMARK 922        TOTAL FREE ENERGY PREDICTED BY IDOCK:   -3.27 KCAL/MOL
REMARK 923 INTER-LIGAND FREE ENERGY PREDICTED BY IDOCK:   -3.96 KCAL/MOL
REMARK 924 INTRA-LIGAND FREE ENERGY PREDICTED BY IDOCK:    0.68 KCAL/MOL
REMARK 927      BINDING AFFINITY PREDICTED BY RF-SCORE:    0.00 PKD
ROOT
HETATM    1  C   UNL     1     -12.800  11.859  63.610  1.00  0.00    -0.305 C  
HETATM    2  O   UNL     1     -12.685  12.334  64.939  1.00  0.00    -0.575 OA 
ENDROOT
BRANCH   2   3
HETATM    3  P   UNL     1     -11.147  12.813  65.568  1.00  0.00    -0.307 P  
HETATM    4  S   UNL     1     -11.449  14.729  65.009  1.00  0.00    -0.394 S  
BRANCH   3   5
HETATM    5  N   UNL     1     -11.821  12.586  67.122  1.00  0.00    -0.490 NA 
HETATM    6  H   UNL     1     -12.055  11.635  67.405  1.00  0.00     0.000 HD 
BRANCH   5   7
HETATM    7  C   UNL     1     -12.084  13.671  68.073  1.00  0.00    -0.274 C  
HETATM    8  C   UNL     1     -12.408  13.104  69.457  1.00  0.00    -0.087 C  
HETATM    9  C   UNL     1     -10.915  14.653  68.197  1.00  0.00    -0.269 C  
ENDBRANCH   5   7
ENDBRANCH   3   5
BRANCH   3  10
HETATM   10  O   UNL     1      -9.608  13.293  66.198  1.00  0.00    -0.264 OA 
BRANCH  10  11
HETATM   11  C   UNL     1      -8.726  12.374  66.718  1.00  0.00    -0.160 A  
HETATM   12  C   UNL     1      -8.945  10.997  66.677  1.00  0.00    -0.176 A  
HETATM   13  C   UNL     1      -8.110  10.114  67.370  1.00  0.00    -0.114 A  
HETATM   14  C   UNL     1      -6.991  10.601  68.034  1.00  0.00    -0.073 A  
HETATM   15  C   UNL     1      -6.703  11.959  68.014  1.00  0.00    -0.070 A  
HETATM   16 CL   UNL     1      -5.961   9.509  68.872  1.00  0.00    -0.042 Cl 
HETATM   17  C   UNL     1      -7.578  12.847  67.369  1.00  0.00    -0.148 A  
HETATM   18 CL   UNL     1      -7.178  14.526  67.378  1.00  0.00    -0.206 Cl 
ENDBRANCH  10  11
ENDBRANCH   3  10
ENDBRANCH   2   3
TORSDOF 5
ENDMDL
MODEL      232
REMARK 921   NORMALIZED FREE ENERGY PREDICTED BY IDOCK:   -2.20 KCAL/MOL
REMARK 922        TOTAL FREE ENERGY PREDICTED BY IDOCK:   -3.26 KCAL/MOL
REMARK 923 INTER-LIGAND FREE ENERGY PREDICTED BY IDOCK:   -3.89 KCAL/MOL
REMARK 924 INTRA-LIGAND FREE ENERGY PREDICTED BY IDOCK:    0.63 KCAL/MOL
REMARK 927      BINDING AFFINITY PREDICTED BY RF-SCORE:    0.00 PKD
ROOT
HETATM    1  C   UNL     1      -9.445   3.827  67.577  1.00  0.00    -0.191 C  
HETATM    2  O   UNL     1      -9.390   4.005  68.981  1.00  0.00    -0.143 OA 
ENDROOT
BRANCH   2   3
HETATM    3  P   UNL     1      -9.061   5.563  69.654  1.00  0.00    -0.133 P  
HETATM    4  S   UNL     1     -10.640   6.377  68.695  1.00  0.00    -0.283 S  
BRANCH   3   5
HETATM    5  N   UNL     1      -9.599   4.925  71.145  1.00  0.00    -0.160 NA 
HETATM    6  H   UNL     1     -10.590   5.007  71.369  1.00  0.00     0.000 HD 
BRANCH   5   7
HETATM    7  C   UNL     1      -8.726   4.265  72.122  1.00  0.00    -0.108 C  
HETATM    8  C   UNL     1      -9.119   2.795  72.285  1.00  0.00    -0.134 C  
HETATM    9  C   UNL     1      -7.243   4.348  71.749  1.00  0.00    -0.063 C  
ENDBRANCH   5   7
ENDBRANCH   3   5
BRANCH   3  10
HETATM   10  O   UNL     1      -8.732   7.122  70.328  1.00  0.00    -0.142 OA 
BRANCH  10  11
HETATM   11  C   UNL     1      -9.733   7.903  70.858  1.00  0.00    -0.164 A  
HETATM   12  C   UNL     1     -10.577   7.472  71.880  1.00  0.00    -0.245 A  
HETATM   13  C   UNL     1     -11.687   8.230  72.266  1.00  0.00    -0.453 A  
HETATM   14  C   UNL     1     -11.905   9.476  71.691  1.00  0.00    -0.397 A  
HETATM   15  C   UNL     1     -11.027   9.966  70.735  1.00  0.00    -0.407 A  
HETATM   16 CL   UNL     1     -13.263  10.410  72.180  1.00  0.00    -0.512 Cl 
HETATM   17  C   UNL     1      -9.949   9.175  70.307  1.00  0.00    -0.208 A  
HETATM   18 CL   UNL     1      -8.890   9.827  69.112  1.00  0.00    -0.150 Cl 
ENDBRANCH  10  11
ENDBRANCH   3  10
ENDBRANCH   2   3
TORSDOF 5
ENDMDL
MODEL      233
REMARK 921   NORMALIZED FREE ENERGY PREDICTED BY IDOCK:   -2.18 KCAL/MOL
REMARK 922        TOTAL FREE ENERGY PREDICTED BY IDOCK:   -3.24 KCAL/MOL
REMARK 923 INTER-LIGAND FREE ENERGY PREDICTED BY IDOCK:   -3.06 KCAL/MOL
REMARK 924 INTRA-LIGAND FREE ENERGY PREDICTED BY IDOCK:   -0.18 KCAL/MOL
REMARK 927      BINDING AFFINITY PREDICTED BY RF-SCORE:    0.00 PKD
ROOT
HETATM    1  C   UNL     1     -12.007  13.937  65.566  1.00  0.00    -0.383 C  
HETATM    2  O   UNL     1     -10.621  13.644  65.560  1.00  0.00    -0.280 OA 
ENDROOT
BRANCH   2   3
HETATM    3  P   UNL     1     -10.016  12.250  66.384  1.00  0.00    -0.236 P  
HETATM    4  S   UNL     1     -11.767  11.273  66.142  1.00  0.00     0.886 S  
BRANCH   3   5
HETATM    5  N   UNL     1      -9.045  11.976  65.006  1.00  0.00    -0.314 NA 
HETATM    6  H   UNL     1      -8.383  12.704  64.738  1.00  0.00     0.000 HD 
BRANCH   5   7
HETATM    7  C   UNL     1      -9.101  10.763  64.185  1.00  0.00    -0.196 C  
HETATM    8  C   UNL     1      -9.426  11.114  62.730  1.00  0.00    -0.357 C  
HETATM    9  C   UNL     1      -7.802   9.953  64.226  1.00  0.00    -0.139 C  
ENDBRANCH   5   7
ENDBRANCH   3   5
BRANCH   3  10
HETATM   10  O   UNL     1      -9.411  10.855  67.210  1.00  0.00    -0.154 OA 
BRANCH  10  11
HETATM   11  C   UNL     1     -10.077  10.308  68.283  1.00  0.00    -0.154 A  
HETATM   12  C   UNL     1     -10.619  11.073  69.315  1.00  0.00    -0.236 A  
HETATM   13  C   UNL     1     -11.132  10.469  70.467  1.00  0.00    -0.267 A  
HETATM   14  C   UNL     1     -11.189   9.084  70.552  1.00  0.00    -0.260 A  
HETATM   15  C   UNL     1     -10.736   8.301  69.499  1.00  0.00    -0.179 A  
HETATM   16 CL   UNL     1     -11.833   8.346  71.965  1.00  0.00    -0.387 Cl 
HETATM   17  C   UNL     1     -10.167   8.912  68.371  1.00  0.00    -0.199 A  
HETATM   18 CL   UNL     1      -9.614   7.894  67.091  1.00  0.00    -0.203 Cl 
ENDBRANCH  10  11
ENDBRANCH   3  10
ENDBRANCH   2   3
TORSDOF 5
ENDMDL
MODEL      234
REMARK 921   NORMALIZED FREE ENERGY PREDICTED BY IDOCK:   -2.15 KCAL/MOL
REMARK 922        TOTAL FREE ENERGY PREDICTED BY IDOCK:   -3.20 KCAL/MOL
REMARK 923 INTER-LIGAND FREE ENERGY PREDICTED BY IDOCK:   -4.52 KCAL/MOL
REMARK 924 INTRA-LIGAND FREE ENERGY PREDICTED BY IDOCK:    1.32 KCAL/MOL
REMARK 927      BINDING AFFINITY PREDICTED BY RF-SCORE:    0.00 PKD
ROOT
HETATM    1  C   UNL     1     -10.220  11.588  64.247  1.00  0.00    -0.311 C  
HETATM    2  O   UNL     1      -9.793  10.956  65.441  1.00  0.00    -0.225 OA 
ENDROOT
BRANCH   2   3
HETATM    3  P   UNL     1      -9.487  11.889  66.865  1.00  0.00    -0.210 P  
HETATM    4  S   UNL     1      -7.518  11.448  66.803  1.00  0.00    -0.111 S  
BRANCH   3   5
HETATM    5  N   UNL     1      -9.766  13.272  65.901  1.00  0.00    -0.437 NA 
HETATM    6  H   UNL     1      -9.087  13.489  65.171  1.00  0.00     0.000 HD 
BRANCH   5   7
HETATM    7  C   UNL     1     -10.918  14.165  66.054  1.00  0.00    -0.304 C  
HETATM    8  C   UNL     1     -11.083  15.047  64.814  1.00  0.00    -0.388 C  
HETATM    9  C   UNL     1     -12.228  13.413  66.310  1.00  0.00    -0.456 C  
ENDBRANCH   5   7
ENDBRANCH   3   5
BRANCH   3  10
HETATM   10  O   UNL     1      -9.181  12.823  68.289  1.00  0.00    -0.204 OA 
BRANCH  10  11
HETATM   11  C   UNL     1      -8.853  14.157  68.218  1.00  0.00    -0.187 A  
HETATM   12  C   UNL     1      -7.704  14.629  67.584  1.00  0.00    -0.194 A  
HETATM   13  C   UNL     1      -7.323  15.970  67.688  1.00  0.00    -0.173 A  
HETATM   14  C   UNL     1      -8.146  16.872  68.352  1.00  0.00    -0.237 A  
HETATM   15  C   UNL     1      -9.340  16.442  68.915  1.00  0.00    -0.249 A  
HETATM   16 CL   UNL     1      -7.680  18.522  68.463  1.00  0.00    -0.320 Cl 
HETATM   17  C   UNL     1      -9.687  15.083  68.861  1.00  0.00    -0.224 A  
HETATM   18 CL   UNL     1     -11.179  14.600  69.581  1.00  0.00    -0.295 Cl 
ENDBRANCH  10  11
ENDBRANCH   3  10
ENDBRANCH   2   3
TORSDOF 5
ENDMDL
MODEL      235
REMARK 921   NORMALIZED FREE ENERGY PREDICTED BY IDOCK:   -2.10 KCAL/MOL
REMARK 922        TOTAL FREE ENERGY PREDICTED BY IDOCK:   -3.14 KCAL/MOL
REMARK 923 INTER-LIGAND FREE ENERGY PREDICTED BY IDOCK:   -2.84 KCAL/MOL
REMARK 924 INTRA-LIGAND FREE ENERGY PREDICTED BY IDOCK:   -0.30 KCAL/MOL
REMARK 927      BINDING AFFINITY PREDICTED BY RF-SCORE:    0.00 PKD
ROOT
HETATM    1  C   UNL     1      -5.346   6.530  67.471  1.00  0.00    -0.005 C  
HETATM    2  O   UNL     1      -6.150   5.470  66.986  1.00  0.00    -0.027 OA 
ENDROOT
BRANCH   2   3
HETATM    3  P   UNL     1      -7.842   5.418  67.343  1.00  0.00    -0.101 P  
HETATM    4  S   UNL     1      -8.247   6.776  65.905  1.00  0.00    -0.138 S  
BRANCH   3   5
HETATM    5  N   UNL     1      -7.844   3.862  66.640  1.00  0.00    -0.088 NA 
HETATM    6  H   UNL     1      -7.538   3.078  67.216  1.00  0.00     0.000 HD 
BRANCH   5   7
HETATM    7  C   UNL     1      -8.258   3.580  65.261  1.00  0.00    -0.097 C  
HETATM    8  C   UNL     1      -7.034   3.428  64.354  1.00  0.00    -0.053 C  
HETATM    9  C   UNL     1      -9.128   2.325  65.143  1.00  0.00    -0.127 C  
ENDBRANCH   5   7
ENDBRANCH   3   5
BRANCH   3  10
HETATM   10  O   UNL     1      -9.534   5.367  67.701  1.00  0.00    -0.116 OA 
BRANCH  10  11
HETATM   11  C   UNL     1     -10.044   5.933  68.847  1.00  0.00    -0.180 A  
HETATM   12  C   UNL     1     -10.637   7.195  68.877  1.00  0.00    -0.218 A  
HETATM   13  C   UNL     1     -10.982   7.800  70.089  1.00  0.00    -0.246 A  
HETATM   14  C   UNL     1     -10.822   7.101  71.279  1.00  0.00    -0.233 A  
HETATM   15  C   UNL     1     -10.316   5.809  71.267  1.00  0.00    -0.281 A  
HETATM   16 CL   UNL     1     -11.262   7.845  72.765  1.00  0.00    -0.457 Cl 
HETATM   17  C   UNL     1      -9.914   5.229  70.053  1.00  0.00    -0.245 A  
HETATM   18 CL   UNL     1      -9.287   3.622  70.092  1.00  0.00    -0.227 Cl 
ENDBRANCH  10  11
ENDBRANCH   3  10
ENDBRANCH   2   3
TORSDOF 5
ENDMDL
MODEL      236
REMARK 921   NORMALIZED FREE ENERGY PREDICTED BY IDOCK:   -2.10 KCAL/MOL
REMARK 922        TOTAL FREE ENERGY PREDICTED BY IDOCK:   -3.14 KCAL/MOL
REMARK 923 INTER-LIGAND FREE ENERGY PREDICTED BY IDOCK:   -3.28 KCAL/MOL
REMARK 924 INTRA-LIGAND FREE ENERGY PREDICTED BY IDOCK:    0.14 KCAL/MOL
REMARK 927      BINDING AFFINITY PREDICTED BY RF-SCORE:    0.00 PKD
ROOT
HETATM    1  C   UNL     1      -7.126  11.003  66.782  1.00  0.00    -0.135 C  
HETATM    2  O   UNL     1      -8.158  10.695  65.862  1.00  0.00    -0.153 OA 
ENDROOT
BRANCH   2   3
HETATM    3  P   UNL     1      -9.016   9.198  65.977  1.00  0.00    -0.210 P  
HETATM    4  S   UNL     1     -10.404  10.018  67.191  1.00  0.00    -0.245 S  
BRANCH   3   5
HETATM    5  N   UNL     1      -9.489   9.457  64.356  1.00  0.00    -0.388 NA 
HETATM    6  H   UNL     1     -10.374   9.935  64.188  1.00  0.00     0.000 HD 
BRANCH   5   7
HETATM    7  C   UNL     1      -8.704   9.036  63.191  1.00  0.00    -0.101 C  
HETATM    8  C   UNL     1      -8.184  10.255  62.425  1.00  0.00    -0.188 C  
HETATM    9  C   UNL     1      -7.520   8.136  63.561  1.00  0.00    -0.121 C  
ENDBRANCH   5   7
ENDBRANCH   3   5
BRANCH   3  10
HETATM   10  O   UNL     1      -9.874   7.700  66.092  1.00  0.00    -0.071 OA 
BRANCH  10  11
HETATM   11  C   UNL     1      -9.924   6.988  67.268  1.00  0.00    -0.181 A  
HETATM   12  C   UNL     1     -11.115   6.687  67.929  1.00  0.00    -0.310 A  
HETATM   13  C   UNL     1     -11.106   6.116  69.205  1.00  0.00    -0.448 A  
HETATM   14  C   UNL     1      -9.900   5.754  69.791  1.00  0.00    -0.178 A  
HETATM   15  C   UNL     1      -8.705   5.962  69.114  1.00  0.00    -0.118 A  
HETATM   16 CL   UNL     1      -9.896   5.039  71.354  1.00  0.00    -0.233 Cl 
HETATM   17  C   UNL     1      -8.716   6.591  67.860  1.00  0.00    -0.116 A  
HETATM   18 CL   UNL     1      -7.204   6.831  67.062  1.00  0.00    -0.079 Cl 
ENDBRANCH  10  11
ENDBRANCH   3  10
ENDBRANCH   2   3
TORSDOF 5
ENDMDL
MODEL      237
REMARK 921   NORMALIZED FREE ENERGY PREDICTED BY IDOCK:   -2.09 KCAL/MOL
REMARK 922        TOTAL FREE ENERGY PREDICTED BY IDOCK:   -3.12 KCAL/MOL
REMARK 923 INTER-LIGAND FREE ENERGY PREDICTED BY IDOCK:   -2.97 KCAL/MOL
REMARK 924 INTRA-LIGAND FREE ENERGY PREDICTED BY IDOCK:   -0.15 KCAL/MOL
REMARK 927      BINDING AFFINITY PREDICTED BY RF-SCORE:    0.00 PKD
ROOT
HETATM    1  C   UNL     1     -10.446   9.312  71.495  1.00  0.00    -0.315 C  
HETATM    2  O   UNL     1      -9.566   9.626  70.430  1.00  0.00    -0.251 OA 
ENDROOT
BRANCH   2   3
HETATM    3  P   UNL     1      -9.861   9.012  68.840  1.00  0.00    -0.186 P  
HETATM    4  S   UNL     1     -10.139  10.872  68.108  1.00  0.00    -0.179 S  
BRANCH   3   5
HETATM    5  N   UNL     1      -8.194   8.645  68.778  1.00  0.00    -0.119 NA 
HETATM    6  H   UNL     1      -7.690   8.862  67.918  1.00  0.00     0.000 HD 
BRANCH   5   7
HETATM    7  C   UNL     1      -7.441   8.040  69.881  1.00  0.00    -0.078 C  
HETATM    8  C   UNL     1      -7.646   6.523  69.902  1.00  0.00    -0.100 C  
HETATM    9  C   UNL     1      -5.940   8.340  69.816  1.00  0.00    -0.029 C  
ENDBRANCH   5   7
ENDBRANCH   3   5
BRANCH   3  10
HETATM   10  O   UNL     1     -10.157   8.397  67.250  1.00  0.00    -0.205 OA 
BRANCH  10  11
HETATM   11  C   UNL     1      -9.819   7.109  66.903  1.00  0.00    -0.208 A  
HETATM   12  C   UNL     1      -8.941   6.804  65.863  1.00  0.00    -0.095 A  
HETATM   13  C   UNL     1      -8.762   5.486  65.434  1.00  0.00    -0.148 A  
HETATM   14  C   UNL     1      -9.394   4.449  66.109  1.00  0.00    -0.159 A  
HETATM   15  C   UNL     1     -10.203   4.720  67.204  1.00  0.00    -0.181 A  
HETATM   16 CL   UNL     1      -9.160   2.828  65.587  1.00  0.00    -0.145 Cl 
HETATM   17  C   UNL     1     -10.428   6.050  67.592  1.00  0.00    -0.235 A  
HETATM   18 CL   UNL     1     -11.446   6.335  68.956  1.00  0.00    -0.333 Cl 
ENDBRANCH  10  11
ENDBRANCH   3  10
ENDBRANCH   2   3
TORSDOF 5
ENDMDL
MODEL      238
REMARK 921   NORMALIZED FREE ENERGY PREDICTED BY IDOCK:   -2.09 KCAL/MOL
REMARK 922        TOTAL FREE ENERGY PREDICTED BY IDOCK:   -3.12 KCAL/MOL
REMARK 923 INTER-LIGAND FREE ENERGY PREDICTED BY IDOCK:   -3.07 KCAL/MOL
REMARK 924 INTRA-LIGAND FREE ENERGY PREDICTED BY IDOCK:   -0.05 KCAL/MOL
REMARK 927      BINDING AFFINITY PREDICTED BY RF-SCORE:    0.00 PKD
ROOT
HETATM    1  C   UNL     1      -7.776   8.426  71.812  1.00  0.00    -0.116 C  
HETATM    2  O   UNL     1      -8.884   8.648  70.959  1.00  0.00    -0.155 OA 
ENDROOT
BRANCH   2   3
HETATM    3  P   UNL     1      -8.644   8.981  69.279  1.00  0.00    -0.145 P  
HETATM    4  S   UNL     1      -8.684   7.016  68.822  1.00  0.00    -0.126 S  
BRANCH   3   5
HETATM    5  N   UNL     1     -10.245   9.576  69.267  1.00  0.00    -0.194 NA 
HETATM    6  H   UNL     1     -10.896   9.180  68.590  1.00  0.00     0.000 HD 
BRANCH   5   7
HETATM    7  C   UNL     1     -10.743  10.620  70.169  1.00  0.00    -0.087 C  
HETATM    8  C   UNL     1     -11.115  11.878  69.380  1.00  0.00    -0.218 C  
HETATM    9  C   UNL     1     -11.955  10.170  70.992  1.00  0.00    -0.474 C  
ENDBRANCH   5   7
ENDBRANCH   3   5
BRANCH   3  10
HETATM   10  O   UNL     1      -8.402   9.315  67.599  1.00  0.00    -0.115 OA 
BRANCH  10  11
HETATM   11  C   UNL     1      -9.128  10.286  66.947  1.00  0.00    -0.143 A  
HETATM   12  C   UNL     1     -10.404  10.068  66.430  1.00  0.00    -0.249 A  
HETATM   13  C   UNL     1     -11.030  11.025  65.627  1.00  0.00    -0.090 A  
HETATM   14  C   UNL     1     -10.416  12.253  65.411  1.00  0.00    -0.269 A  
HETATM   15  C   UNL     1      -9.184  12.527  65.989  1.00  0.00    -0.020 A  
HETATM   16 CL   UNL     1     -11.196  13.432  64.434  1.00  0.00    -0.389 Cl 
HETATM   17  C   UNL     1      -8.533  11.540  66.744  1.00  0.00    -0.168 A  
HETATM   18 CL   UNL     1      -7.000  11.929  67.436  1.00  0.00    -0.116 Cl 
ENDBRANCH  10  11
ENDBRANCH   3  10
ENDBRANCH   2   3
TORSDOF 5
ENDMDL
MODEL      239
REMARK 921   NORMALIZED FREE ENERGY PREDICTED BY IDOCK:   -2.07 KCAL/MOL
REMARK 922        TOTAL FREE ENERGY PREDICTED BY IDOCK:   -3.10 KCAL/MOL
REMARK 923 INTER-LIGAND FREE ENERGY PREDICTED BY IDOCK:   -2.78 KCAL/MOL
REMARK 924 INTRA-LIGAND FREE ENERGY PREDICTED BY IDOCK:   -0.32 KCAL/MOL
REMARK 927      BINDING AFFINITY PREDICTED BY RF-SCORE:    0.00 PKD
ROOT
HETATM    1  C   UNL     1     -11.385   6.410  69.991  1.00  0.00    -0.430 C  
HETATM    2  O   UNL     1     -10.048   6.679  70.371  1.00  0.00    -0.182 OA 
ENDROOT
BRANCH   2   3
HETATM    3  P   UNL     1      -9.264   8.130  69.850  1.00  0.00    -0.151 P  
HETATM    4  S   UNL     1      -9.768   9.086  71.555  1.00  0.00    -0.254 S  
BRANCH   3   5
HETATM    5  N   UNL     1      -7.788   7.308  70.102  1.00  0.00    -0.098 NA 
HETATM    6  H   UNL     1      -7.220   7.087  69.284  1.00  0.00     0.000 HD 
BRANCH   5   7
HETATM    7  C   UNL     1      -7.286   6.900  71.418  1.00  0.00    -0.080 C  
HETATM    8  C   UNL     1      -6.510   5.585  71.312  1.00  0.00    -0.036 C  
HETATM    9  C   UNL     1      -6.389   7.958  72.069  1.00  0.00    -0.043 C  
ENDBRANCH   5   7
ENDBRANCH   3   5
BRANCH   3  10
HETATM   10  O   UNL     1      -8.481   9.582  69.328  1.00  0.00    -0.123 OA 
BRANCH  10  11
HETATM   11  C   UNL     1      -8.783  10.169  68.121  1.00  0.00    -0.122 A  
HETATM   12  C   UNL     1     -10.080  10.521  67.747  1.00  0.00    -0.205 A  
HETATM   13  C   UNL     1     -10.363  10.952  66.447  1.00  0.00    -0.306 A  
HETATM   14  C   UNL     1      -9.327  11.123  65.537  1.00  0.00    -0.223 A  
HETATM   15  C   UNL     1      -8.017  10.864  65.913  1.00  0.00    -0.105 A  
HETATM   16 CL   UNL     1      -9.679  11.668  63.945  1.00  0.00    -0.267 Cl 
HETATM   17  C   UNL     1      -7.746  10.373  67.200  1.00  0.00    -0.100 A  
HETATM   18 CL   UNL     1      -6.101  10.061  67.617  1.00  0.00    -0.057 Cl 
ENDBRANCH  10  11
ENDBRANCH   3  10
ENDBRANCH   2   3
TORSDOF 5
ENDMDL
MODEL      240
REMARK 921   NORMALIZED FREE ENERGY PREDICTED BY IDOCK:   -2.07 KCAL/MOL
REMARK 922        TOTAL FREE ENERGY PREDICTED BY IDOCK:   -3.10 KCAL/MOL
REMARK 923 INTER-LIGAND FREE ENERGY PREDICTED BY IDOCK:   -3.12 KCAL/MOL
REMARK 924 INTRA-LIGAND FREE ENERGY PREDICTED BY IDOCK:    0.03 KCAL/MOL
REMARK 927      BINDING AFFINITY PREDICTED BY RF-SCORE:    0.00 PKD
ROOT
HETATM    1  C   UNL     1      -9.262   4.610  66.217  1.00  0.00    -0.135 C  
HETATM    2  O   UNL     1      -9.290   4.741  67.627  1.00  0.00    -0.126 OA 
ENDROOT
BRANCH   2   3
HETATM    3  P   UNL     1      -9.870   6.196  68.360  1.00  0.00    -0.143 P  
HETATM    4  S   UNL     1     -11.146   6.529  66.832  1.00  0.00    -0.077 S  
BRANCH   3   5
HETATM    5  N   UNL     1     -10.643   5.194  69.508  1.00  0.00    -0.175 NA 
HETATM    6  H   UNL     1     -11.533   4.770  69.247  1.00  0.00     0.000 HD 
BRANCH   5   7
HETATM    7  C   UNL     1     -10.110   4.906  70.843  1.00  0.00    -0.222 C  
HETATM    8  C   UNL     1      -8.618   5.243  70.909  1.00  0.00    -0.133 C  
HETATM    9  C   UNL     1     -10.843   5.663  71.955  1.00  0.00    -0.300 C  
ENDBRANCH   5   7
ENDBRANCH   3   5
BRANCH   3  10
HETATM   10  O   UNL     1     -10.449   7.652  69.094  1.00  0.00    -0.215 OA 
BRANCH  10  11
HETATM   11  C   UNL     1     -10.000   8.889  68.690  1.00  0.00    -0.177 A  
HETATM   12  C   UNL     1     -10.425   9.510  67.517  1.00  0.00    -0.336 A  
HETATM   13  C   UNL     1      -9.815  10.682  67.060  1.00  0.00    -0.222 A  
HETATM   14  C   UNL     1      -8.833  11.293  67.829  1.00  0.00    -0.141 A  
HETATM   15  C   UNL     1      -8.455  10.741  69.046  1.00  0.00    -0.137 A  
HETATM   16 CL   UNL     1      -8.096  12.742  67.270  1.00  0.00    -0.183 Cl 
HETATM   17  C   UNL     1      -9.027   9.532  69.470  1.00  0.00    -0.181 A  
HETATM   18 CL   UNL     1      -8.520   8.884  70.987  1.00  0.00    -0.222 Cl 
ENDBRANCH  10  11
ENDBRANCH   3  10
ENDBRANCH   2   3
TORSDOF 5
ENDMDL
MODEL      241
REMARK 921   NORMALIZED FREE ENERGY PREDICTED BY IDOCK:   -2.06 KCAL/MOL
REMARK 922        TOTAL FREE ENERGY PREDICTED BY IDOCK:   -3.08 KCAL/MOL
REMARK 923 INTER-LIGAND FREE ENERGY PREDICTED BY IDOCK:   -2.37 KCAL/MOL
REMARK 924 INTRA-LIGAND FREE ENERGY PREDICTED BY IDOCK:   -0.71 KCAL/MOL
REMARK 927      BINDING AFFINITY PREDICTED BY RF-SCORE:    0.00 PKD
ROOT
HETATM    1  C   UNL     1     -10.622   3.711  64.327  1.00  0.00    -0.199 C  
HETATM    2  O   UNL     1     -10.650   4.617  65.416  1.00  0.00    -0.229 OA 
ENDROOT
BRANCH   2   3
HETATM    3  P   UNL     1      -9.499   4.481  66.699  1.00  0.00    -0.208 P  
HETATM    4  S   UNL     1      -8.621   2.888  65.823  1.00  0.00    -0.123 S  
BRANCH   3   5
HETATM    5  N   UNL     1      -8.786   5.905  66.081  1.00  0.00    -0.143 NA 
HETATM    6  H   UNL     1      -7.793   5.880  65.854  1.00  0.00     0.000 HD 
BRANCH   5   7
HETATM    7  C   UNL     1      -9.512   7.159  65.855  1.00  0.00     0.197 C  
HETATM    8  C   UNL     1     -10.045   7.716  67.177  1.00  0.00    -0.323 C  
HETATM    9  C   UNL     1      -8.655   8.229  65.171  1.00  0.00    -0.132 C  
ENDBRANCH   5   7
ENDBRANCH   3   5
BRANCH   3  10
HETATM   10  O   UNL     1      -8.348   4.344  67.984  1.00  0.00    -0.094 OA 
BRANCH  10  11
HETATM   11  C   UNL     1      -8.478   5.070  69.146  1.00  0.00    -0.085 A  
HETATM   12  C   UNL     1      -9.561   4.936  70.013  1.00  0.00    -0.261 A  
HETATM   13  C   UNL     1      -9.738   5.814  71.087  1.00  0.00    -0.210 A  
HETATM   14  C   UNL     1      -8.774   6.779  71.354  1.00  0.00    -0.131 A  
HETATM   15  C   UNL     1      -7.641   6.874  70.557  1.00  0.00    -0.091 A  
HETATM   16 CL   UNL     1      -8.989   7.847  72.684  1.00  0.00    -0.226 Cl 
HETATM   17  C   UNL     1      -7.500   6.030  69.445  1.00  0.00    -0.088 A  
HETATM   18 CL   UNL     1      -6.077   6.191  68.482  1.00  0.00    -0.023 Cl 
ENDBRANCH  10  11
ENDBRANCH   3  10
ENDBRANCH   2   3
TORSDOF 5
ENDMDL
MODEL      242
REMARK 921   NORMALIZED FREE ENERGY PREDICTED BY IDOCK:   -2.04 KCAL/MOL
REMARK 922        TOTAL FREE ENERGY PREDICTED BY IDOCK:   -3.06 KCAL/MOL
REMARK 923 INTER-LIGAND FREE ENERGY PREDICTED BY IDOCK:   -2.35 KCAL/MOL
REMARK 924 INTRA-LIGAND FREE ENERGY PREDICTED BY IDOCK:   -0.70 KCAL/MOL
REMARK 927      BINDING AFFINITY PREDICTED BY RF-SCORE:    0.00 PKD
ROOT
HETATM    1  C   UNL     1      -9.745  11.749  65.549  1.00  0.00    -0.224 C  
HETATM    2  O   UNL     1      -9.490  11.328  66.877  1.00  0.00    -0.173 OA 
ENDROOT
BRANCH   2   3
HETATM    3  P   UNL     1      -8.312  10.103  67.197  1.00  0.00    -0.125 P  
HETATM    4  S   UNL     1      -6.797  11.420  66.984  1.00  0.00    -0.144 S  
BRANCH   3   5
HETATM    5  N   UNL     1      -8.849  10.148  68.818  1.00  0.00    -0.138 NA 
HETATM    6  H   UNL     1      -8.189  10.461  69.530  1.00  0.00     0.000 HD 
BRANCH   5   7
HETATM    7  C   UNL     1     -10.197   9.765  69.251  1.00  0.00    -0.204 C  
HETATM    8  C   UNL     1     -10.623   8.455  68.585  1.00  0.00    -0.149 C  
HETATM    9  C   UNL     1     -10.316   9.615  70.771  1.00  0.00    -0.356 C  
ENDBRANCH   5   7
ENDBRANCH   3   5
BRANCH   3  10
HETATM   10  O   UNL     1      -7.134   8.877  67.517  1.00  0.00    -0.075 OA 
BRANCH  10  11
HETATM   11  C   UNL     1      -7.316   7.579  67.100  1.00  0.00    -0.094 A  
HETATM   12  C   UNL     1      -7.331   7.203  65.757  1.00  0.00    -0.075 A  
HETATM   13  C   UNL     1      -7.691   5.907  65.375  1.00  0.00    -0.093 A  
HETATM   14  C   UNL     1      -7.949   4.948  66.347  1.00  0.00    -0.107 A  
HETATM   15  C   UNL     1      -7.853   5.276  67.693  1.00  0.00    -0.096 A  
HETATM   16 CL   UNL     1      -8.377   3.353  65.872  1.00  0.00    -0.101 Cl 
HETATM   17  C   UNL     1      -7.551   6.593  68.070  1.00  0.00    -0.107 A  
HETATM   18 CL   UNL     1      -7.450   6.950  69.755  1.00  0.00    -0.092 Cl 
ENDBRANCH  10  11
ENDBRANCH   3  10
ENDBRANCH   2   3
TORSDOF 5
ENDMDL
MODEL      243
REMARK 921   NORMALIZED FREE ENERGY PREDICTED BY IDOCK:   -1.98 KCAL/MOL
REMARK 922        TOTAL FREE ENERGY PREDICTED BY IDOCK:   -2.98 KCAL/MOL
REMARK 923 INTER-LIGAND FREE ENERGY PREDICTED BY IDOCK:   -2.44 KCAL/MOL
REMARK 924 INTRA-LIGAND FREE ENERGY PREDICTED BY IDOCK:   -0.54 KCAL/MOL
REMARK 927      BINDING AFFINITY PREDICTED BY RF-SCORE:    0.00 PKD
ROOT
HETATM    1  C   UNL     1     -11.739   6.592  70.283  1.00  0.00    -0.371 C  
HETATM    2  O   UNL     1     -10.437   6.758  69.752  1.00  0.00    -0.193 OA 
ENDROOT
BRANCH   2   3
HETATM    3  P   UNL     1     -10.165   6.651  68.048  1.00  0.00    -0.207 P  
HETATM    4  S   UNL     1     -10.407   8.642  67.823  1.00  0.00    -0.233 S  
BRANCH   3   5
HETATM    5  N   UNL     1      -8.528   6.340  68.427  1.00  0.00    -0.115 NA 
HETATM    6  H   UNL     1      -8.258   5.376  68.618  1.00  0.00     0.000 HD 
BRANCH   5   7
HETATM    7  C   UNL     1      -7.487   7.371  68.495  1.00  0.00    -0.105 C  
HETATM    8  C   UNL     1      -6.792   7.343  69.858  1.00  0.00    -0.055 C  
HETATM    9  C   UNL     1      -6.433   7.229  67.392  1.00  0.00    -0.059 C  
ENDBRANCH   5   7
ENDBRANCH   3   5
BRANCH   3  10
HETATM   10  O   UNL     1      -9.893   6.542  66.342  1.00  0.00    -0.145 OA 
BRANCH  10  11
HETATM   11  C   UNL     1      -9.383   5.402  65.766  1.00  0.00    -0.118 A  
HETATM   12  C   UNL     1      -9.776   4.117  66.139  1.00  0.00    -0.215 A  
HETATM   13  C   UNL     1      -9.108   2.989  65.652  1.00  0.00    -0.149 A  
HETATM   14  C   UNL     1      -8.098   3.139  64.709  1.00  0.00    -0.086 A  
HETATM   15  C   UNL     1      -7.750   4.404  64.255  1.00  0.00    -0.080 A  
HETATM   16 CL   UNL     1      -7.291   1.749  64.102  1.00  0.00    -0.055 Cl 
HETATM   17  C   UNL     1      -8.382   5.536  64.793  1.00  0.00    -0.136 A  
HETATM   18 CL   UNL     1      -7.909   7.086  64.199  1.00  0.00    -0.116 Cl 
ENDBRANCH  10  11
ENDBRANCH   3  10
ENDBRANCH   2   3
TORSDOF 5
ENDMDL
MODEL      244
REMARK 921   NORMALIZED FREE ENERGY PREDICTED BY IDOCK:   -1.98 KCAL/MOL
REMARK 922        TOTAL FREE ENERGY PREDICTED BY IDOCK:   -2.98 KCAL/MOL
REMARK 923 INTER-LIGAND FREE ENERGY PREDICTED BY IDOCK:   -3.70 KCAL/MOL
REMARK 924 INTRA-LIGAND FREE ENERGY PREDICTED BY IDOCK:    0.72 KCAL/MOL
REMARK 927      BINDING AFFINITY PREDICTED BY RF-SCORE:    0.00 PKD
ROOT
HETATM    1  C   UNL     1      -8.018   8.340  65.885  1.00  0.00    -0.097 C  
HETATM    2  O   UNL     1      -8.363   7.058  66.380  1.00  0.00    -0.114 OA 
ENDROOT
BRANCH   2   3
HETATM    3  P   UNL     1      -8.558   6.798  68.078  1.00  0.00    -0.120 P  
HETATM    4  S   UNL     1      -9.177   8.698  68.359  1.00  0.00    -0.137 S  
BRANCH   3   5
HETATM    5  N   UNL     1      -9.913   5.837  67.676  1.00  0.00    -0.130 NA 
HETATM    6  H   UNL     1     -10.837   6.261  67.755  1.00  0.00     0.000 HD 
BRANCH   5   7
HETATM    7  C   UNL     1      -9.831   4.444  67.225  1.00  0.00    -0.162 C  
HETATM    8  C   UNL     1     -10.135   4.347  65.728  1.00  0.00    -0.262 C  
HETATM    9  C   UNL     1      -8.466   3.806  67.501  1.00  0.00    -0.103 C  
ENDBRANCH   5   7
ENDBRANCH   3   5
BRANCH   3  10
HETATM   10  O   UNL     1      -8.753   6.537  69.777  1.00  0.00    -0.140 OA 
BRANCH  10  11
HETATM   11  C   UNL     1      -9.822   7.059  70.468  1.00  0.00    -0.179 A  
HETATM   12  C   UNL     1     -11.140   6.658  70.253  1.00  0.00    -0.379 A  
HETATM   13  C   UNL     1     -12.207   7.337  70.850  1.00  0.00    -0.308 A  
HETATM   14  C   UNL     1     -11.953   8.368  71.745  1.00  0.00    -0.325 A  
HETATM   15  C   UNL     1     -10.646   8.727  72.044  1.00  0.00    -0.414 A  
HETATM   16 CL   UNL     1     -13.268   9.190  72.487  1.00  0.00    -0.501 Cl 
HETATM   17  C   UNL     1      -9.581   8.084  71.395  1.00  0.00    -0.154 A  
HETATM   18 CL   UNL     1      -7.975   8.570  71.797  1.00  0.00    -0.174 Cl 
ENDBRANCH  10  11
ENDBRANCH   3  10
ENDBRANCH   2   3
TORSDOF 5
ENDMDL
MODEL      245
REMARK 921   NORMALIZED FREE ENERGY PREDICTED BY IDOCK:   -1.97 KCAL/MOL
REMARK 922        TOTAL FREE ENERGY PREDICTED BY IDOCK:   -2.96 KCAL/MOL
REMARK 923 INTER-LIGAND FREE ENERGY PREDICTED BY IDOCK:   -3.07 KCAL/MOL
REMARK 924 INTRA-LIGAND FREE ENERGY PREDICTED BY IDOCK:    0.11 KCAL/MOL
REMARK 927      BINDING AFFINITY PREDICTED BY RF-SCORE:    0.00 PKD
ROOT
HETATM    1  C   UNL     1      -7.403   8.216  64.930  1.00  0.00    -0.087 C  
HETATM    2  O   UNL     1      -7.137   9.368  65.709  1.00  0.00    -0.088 OA 
ENDROOT
BRANCH   2   3
HETATM    3  P   UNL     1      -8.435  10.284  66.393  1.00  0.00    -0.138 P  
HETATM    4  S   UNL     1      -9.797   9.299  65.276  1.00  0.00     0.333 S  
BRANCH   3   5
HETATM    5  N   UNL     1      -8.169   9.402  67.832  1.00  0.00    -0.114 NA 
HETATM    6  H   UNL     1      -8.383   8.404  67.826  1.00  0.00     0.000 HD 
BRANCH   5   7
HETATM    7  C   UNL     1      -7.654   9.986  69.074  1.00  0.00    -0.090 C  
HETATM    8  C   UNL     1      -7.335  11.470  68.877  1.00  0.00    -0.116 C  
HETATM    9  C   UNL     1      -8.623   9.835  70.252  1.00  0.00    -0.169 C  
ENDBRANCH   5   7
ENDBRANCH   3   5
BRANCH   3  10
HETATM   10  O   UNL     1      -9.733  11.200  67.077  1.00  0.00    -0.182 OA 
BRANCH  10  11
HETATM   11  C   UNL     1     -10.206  12.341  66.471  1.00  0.00    -0.214 A  
HETATM   12  C   UNL     1     -10.135  12.560  65.095  1.00  0.00    -0.266 A  
HETATM   13  C   UNL     1     -10.468  13.801  64.545  1.00  0.00    -0.378 A  
HETATM   14  C   UNL     1     -10.967  14.807  65.364  1.00  0.00    -0.359 A  
HETATM   15  C   UNL     1     -11.130  14.583  66.724  1.00  0.00    -0.325 A  
HETATM   16 CL   UNL     1     -11.388  16.327  64.681  1.00  0.00    -0.355 Cl 
HETATM   17  C   UNL     1     -10.737  13.356  67.280  1.00  0.00    -0.260 A  
HETATM   18 CL   UNL     1     -10.956  13.128  68.977  1.00  0.00    -0.266 Cl 
ENDBRANCH  10  11
ENDBRANCH   3  10
ENDBRANCH   2   3
TORSDOF 5
ENDMDL
MODEL      246
REMARK 921   NORMALIZED FREE ENERGY PREDICTED BY IDOCK:   -1.96 KCAL/MOL
REMARK 922        TOTAL FREE ENERGY PREDICTED BY IDOCK:   -2.96 KCAL/MOL
REMARK 923 INTER-LIGAND FREE ENERGY PREDICTED BY IDOCK:   -2.79 KCAL/MOL
REMARK 924 INTRA-LIGAND FREE ENERGY PREDICTED BY IDOCK:   -0.16 KCAL/MOL
REMARK 927      BINDING AFFINITY PREDICTED BY RF-SCORE:    0.00 PKD
ROOT
HETATM    1  C   UNL     1     -11.143   4.555  73.294  1.00  0.00    -0.304 C  
HETATM    2  O   UNL     1     -11.020   5.044  71.971  1.00  0.00    -0.141 OA 
ENDROOT
BRANCH   2   3
HETATM    3  P   UNL     1      -9.474   5.499  71.344  1.00  0.00    -0.153 P  
HETATM    4  S   UNL     1      -9.659   4.220  69.793  1.00  0.00    -0.216 S  
BRANCH   3   5
HETATM    5  N   UNL     1     -10.194   6.987  70.913  1.00  0.00    -0.197 NA 
HETATM    6  H   UNL     1     -10.208   7.241  69.926  1.00  0.00     0.000 HD 
BRANCH   5   7
HETATM    7  C   UNL     1     -10.793   7.921  71.871  1.00  0.00    -0.243 C  
HETATM    8  C   UNL     1      -9.975   7.962  73.164  1.00  0.00    -0.358 C  
HETATM    9  C   UNL     1     -10.924   9.343  71.317  1.00  0.00    -0.440 C  
ENDBRANCH   5   7
ENDBRANCH   3   5
BRANCH   3  10
HETATM   10  O   UNL     1      -7.926   5.954  70.719  1.00  0.00    -0.109 OA 
BRANCH  10  11
HETATM   11  C   UNL     1      -7.656   7.248  70.339  1.00  0.00    -0.088 A  
HETATM   12  C   UNL     1      -7.994   7.764  69.088  1.00  0.00    -0.119 A  
HETATM   13  C   UNL     1      -7.547   9.025  68.684  1.00  0.00    -0.092 A  
HETATM   14  C   UNL     1      -6.832   9.821  69.571  1.00  0.00    -0.060 A  
HETATM   15  C   UNL     1      -6.559   9.364  70.853  1.00  0.00    -0.098 A  
HETATM   16 CL   UNL     1      -6.297  11.376  69.073  1.00  0.00    -0.057 Cl 
HETATM   17  C   UNL     1      -6.958   8.073  71.233  1.00  0.00    -0.056 A  
HETATM   18 CL   UNL     1      -6.590   7.551  72.836  1.00  0.00    -0.063 Cl 
ENDBRANCH  10  11
ENDBRANCH   3  10
ENDBRANCH   2   3
TORSDOF 5
ENDMDL
MODEL      247
REMARK 921   NORMALIZED FREE ENERGY PREDICTED BY IDOCK:   -1.95 KCAL/MOL
REMARK 922        TOTAL FREE ENERGY PREDICTED BY IDOCK:   -2.94 KCAL/MOL
REMARK 923 INTER-LIGAND FREE ENERGY PREDICTED BY IDOCK:   -2.47 KCAL/MOL
REMARK 924 INTRA-LIGAND FREE ENERGY PREDICTED BY IDOCK:   -0.47 KCAL/MOL
REMARK 927      BINDING AFFINITY PREDICTED BY RF-SCORE:    0.00 PKD
ROOT
HETATM    1  C   UNL     1      -9.015  10.369  63.694  1.00  0.00    -0.231 C  
HETATM    2  O   UNL     1      -8.852  10.111  65.077  1.00  0.00    -0.157 OA 
ENDROOT
BRANCH   2   3
HETATM    3  P   UNL     1      -8.214   8.597  65.617  1.00  0.00    -0.139 P  
HETATM    4  S   UNL     1      -6.412   8.996  64.800  1.00  0.00    -0.067 S  
BRANCH   3   5
HETATM    5  N   UNL     1      -8.255   9.253  67.194  1.00  0.00    -0.116 NA 
HETATM    6  H   UNL     1      -7.420   9.158  67.771  1.00  0.00     0.000 HD 
BRANCH   5   7
HETATM    7  C   UNL     1      -9.413   9.944  67.770  1.00  0.00    -0.140 C  
HETATM    8  C   UNL     1     -10.648   9.040  67.736  1.00  0.00    -0.278 C  
HETATM    9  C   UNL     1      -9.175  10.411  69.209  1.00  0.00    -0.198 C  
ENDBRANCH   5   7
ENDBRANCH   3   5
BRANCH   3  10
HETATM   10  O   UNL     1      -7.577   7.082  66.157  1.00  0.00    -0.090 OA 
BRANCH  10  11
HETATM   11  C   UNL     1      -8.139   6.401  67.213  1.00  0.00    -0.113 A  
HETATM   12  C   UNL     1      -9.388   5.785  67.147  1.00  0.00    -0.116 A  
HETATM   13  C   UNL     1      -9.993   5.257  68.291  1.00  0.00    -0.214 A  
HETATM   14  C   UNL     1      -9.304   5.258  69.498  1.00  0.00    -0.130 A  
HETATM   15  C   UNL     1      -8.022   5.786  69.569  1.00  0.00    -0.097 A  
HETATM   16 CL   UNL     1     -10.047   4.594  70.899  1.00  0.00    -0.281 Cl 
HETATM   17  C   UNL     1      -7.445   6.370  68.431  1.00  0.00    -0.088 A  
HETATM   18 CL   UNL     1      -5.851   7.016  68.573  1.00  0.00    -0.021 Cl 
ENDBRANCH  10  11
ENDBRANCH   3  10
ENDBRANCH   2   3
TORSDOF 5
ENDMDL
MODEL      248
REMARK 921   NORMALIZED FREE ENERGY PREDICTED BY IDOCK:   -1.95 KCAL/MOL
REMARK 922        TOTAL FREE ENERGY PREDICTED BY IDOCK:   -2.94 KCAL/MOL
REMARK 923 INTER-LIGAND FREE ENERGY PREDICTED BY IDOCK:   -3.27 KCAL/MOL
REMARK 924 INTRA-LIGAND FREE ENERGY PREDICTED BY IDOCK:    0.34 KCAL/MOL
REMARK 927      BINDING AFFINITY PREDICTED BY RF-SCORE:    0.00 PKD
ROOT
HETATM    1  C   UNL     1      -6.034   5.180  67.149  1.00  0.00    -0.026 C  
HETATM    2  O   UNL     1      -6.665   6.119  68.000  1.00  0.00    -0.059 OA 
ENDROOT
BRANCH   2   3
HETATM    3  P   UNL     1      -8.257   6.695  67.644  1.00  0.00    -0.123 P  
HETATM    4  S   UNL     1      -7.527   8.402  66.851  1.00  0.00    -0.088 S  
BRANCH   3   5
HETATM    5  N   UNL     1      -8.308   5.504  66.421  1.00  0.00    -0.110 NA 
HETATM    6  H   UNL     1      -7.664   5.599  65.636  1.00  0.00     0.000 HD 
BRANCH   5   7
HETATM    7  C   UNL     1      -9.218   4.354  66.427  1.00  0.00    -0.142 C  
HETATM    8  C   UNL     1      -9.403   3.824  67.851  1.00  0.00    -0.236 C  
HETATM    9  C   UNL     1     -10.592   4.676  65.831  1.00  0.00    -0.265 C  
ENDBRANCH   5   7
ENDBRANCH   3   5
BRANCH   3  10
HETATM   10  O   UNL     1      -9.849   7.270  67.289  1.00  0.00    -0.148 OA 
BRANCH  10  11
HETATM   11  C   UNL     1     -10.462   8.221  68.072  1.00  0.00    -0.181 A  
HETATM   12  C   UNL     1     -10.710   9.523  67.638  1.00  0.00    -0.314 A  
HETATM   13  C   UNL     1     -11.175  10.501  68.523  1.00  0.00    -0.332 A  
HETATM   14  C   UNL     1     -11.485  10.155  69.833  1.00  0.00    -0.254 A  
HETATM   15  C   UNL     1     -11.330   8.844  70.263  1.00  0.00    -0.179 A  
HETATM   16 CL   UNL     1     -12.069  11.358  70.912  1.00  0.00    -0.432 Cl 
HETATM   17  C   UNL     1     -10.806   7.880  69.388  1.00  0.00    -0.106 A  
HETATM   18 CL   UNL     1     -10.629   6.267  69.973  1.00  0.00    -0.280 Cl 
ENDBRANCH  10  11
ENDBRANCH   3  10
ENDBRANCH   2   3
TORSDOF 5
ENDMDL
MODEL      249
REMARK 921   NORMALIZED FREE ENERGY PREDICTED BY IDOCK:   -1.94 KCAL/MOL
REMARK 922        TOTAL FREE ENERGY PREDICTED BY IDOCK:   -2.92 KCAL/MOL
REMARK 923 INTER-LIGAND FREE ENERGY PREDICTED BY IDOCK:   -3.33 KCAL/MOL
REMARK 924 INTRA-LIGAND FREE ENERGY PREDICTED BY IDOCK:    0.41 KCAL/MOL
REMARK 927      BINDING AFFINITY PREDICTED BY RF-SCORE:    0.00 PKD
ROOT
HETATM    1  C   UNL     1      -6.548  11.765  67.659  1.00  0.00    -0.085 C  
HETATM    2  O   UNL     1      -7.539  11.869  66.653  1.00  0.00    -0.085 OA 
ENDROOT
BRANCH   2   3
HETATM    3  P   UNL     1      -8.911  10.817  66.663  1.00  0.00    -0.161 P  
HETATM    4  S   UNL     1      -8.583  10.308  68.588  1.00  0.00    -0.136 S  
BRANCH   3   5
HETATM    5  N   UNL     1      -9.872  12.230  66.629  1.00  0.00    -0.216 NA 
HETATM    6  H   UNL     1     -10.046  12.709  67.512  1.00  0.00     0.000 HD 
BRANCH   5   7
HETATM    7  C   UNL     1     -10.461  12.797  65.412  1.00  0.00    -0.286 C  
HETATM    8  C   UNL     1     -10.089  14.275  65.274  1.00  0.00    -0.378 C  
HETATM    9  C   UNL     1     -10.038  12.054  64.141  1.00  0.00    -0.340 C  
ENDBRANCH   5   7
ENDBRANCH   3   5
BRANCH   3  10
HETATM   10  O   UNL     1     -10.285   9.764  66.672  1.00  0.00    -0.226 OA 
BRANCH  10  11
HETATM   11  C   UNL     1     -10.162   8.425  66.962  1.00  0.00    -0.307 A  
HETATM   12  C   UNL     1     -10.902   7.788  67.958  1.00  0.00    -0.046 A  
HETATM   13  C   UNL     1     -10.621   6.471  68.334  1.00  0.00    -0.296 A  
HETATM   14  C   UNL     1      -9.654   5.749  67.645  1.00  0.00    -0.114 A  
HETATM   15  C   UNL     1      -8.966   6.333  66.591  1.00  0.00    -0.139 A  
HETATM   16 CL   UNL     1      -9.322   4.126  68.102  1.00  0.00    -0.195 Cl 
HETATM   17  C   UNL     1      -9.209   7.675  66.258  1.00  0.00    -0.154 A  
HETATM   18 CL   UNL     1      -8.324   8.356  64.942  1.00  0.00    -0.165 Cl 
ENDBRANCH  10  11
ENDBRANCH   3  10
ENDBRANCH   2   3
TORSDOF 5
ENDMDL
MODEL      250
REMARK 921   NORMALIZED FREE ENERGY PREDICTED BY IDOCK:   -1.93 KCAL/MOL
REMARK 922        TOTAL FREE ENERGY PREDICTED BY IDOCK:   -2.92 KCAL/MOL
REMARK 923 INTER-LIGAND FREE ENERGY PREDICTED BY IDOCK:   -3.12 KCAL/MOL
REMARK 924 INTRA-LIGAND FREE ENERGY PREDICTED BY IDOCK:    0.21 KCAL/MOL
REMARK 927      BINDING AFFINITY PREDICTED BY RF-SCORE:    0.00 PKD
ROOT
HETATM    1  C   UNL     1      -7.536   8.786  65.001  1.00  0.00    -0.100 C  
HETATM    2  O   UNL     1      -7.187   7.525  65.542  1.00  0.00    -0.065 OA 
ENDROOT
BRANCH   2   3
HETATM    3  P   UNL     1      -7.545   7.150  67.192  1.00  0.00    -0.107 P  
HETATM    4  S   UNL     1      -7.667   9.106  67.673  1.00  0.00    -0.089 S  
BRANCH   3   5
HETATM    5  N   UNL     1      -9.075   6.628  66.640  1.00  0.00    -0.140 NA 
HETATM    6  H   UNL     1      -9.892   7.175  66.913  1.00  0.00     0.000 HD 
BRANCH   5   7
HETATM    7  C   UNL     1      -9.289   5.446  65.799  1.00  0.00    -0.118 C  
HETATM    8  C   UNL     1      -8.188   4.410  66.039  1.00  0.00    -0.109 C  
HETATM    9  C   UNL     1     -10.654   4.788  66.030  1.00  0.00    -0.300 C  
ENDBRANCH   5   7
ENDBRANCH   3   5
BRANCH   3  10
HETATM   10  O   UNL     1      -7.902   6.774  68.842  1.00  0.00    -0.107 OA 
BRANCH  10  11
HETATM   11  C   UNL     1      -9.175   6.900  69.350  1.00  0.00    -0.147 A  
HETATM   12  C   UNL     1      -9.782   8.132  69.591  1.00  0.00    -0.170 A  
HETATM   13  C   UNL     1     -11.003   8.213  70.267  1.00  0.00    -0.240 A  
HETATM   14  C   UNL     1     -11.673   7.049  70.624  1.00  0.00    -0.338 A  
HETATM   15  C   UNL     1     -11.130   5.809  70.315  1.00  0.00    -0.300 A  
HETATM   16 CL   UNL     1     -13.181   7.154  71.442  1.00  0.00    -0.427 Cl 
HETATM   17  C   UNL     1      -9.875   5.734  69.691  1.00  0.00    -0.176 A  
HETATM   18 CL   UNL     1      -9.242   4.169  69.332  1.00  0.00    -0.191 Cl 
ENDBRANCH  10  11
ENDBRANCH   3  10
ENDBRANCH   2   3
TORSDOF 5
ENDMDL
MODEL      251
REMARK 921   NORMALIZED FREE ENERGY PREDICTED BY IDOCK:   -1.93 KCAL/MOL
REMARK 922        TOTAL FREE ENERGY PREDICTED BY IDOCK:   -2.91 KCAL/MOL
REMARK 923 INTER-LIGAND FREE ENERGY PREDICTED BY IDOCK:   -3.33 KCAL/MOL
REMARK 924 INTRA-LIGAND FREE ENERGY PREDICTED BY IDOCK:    0.42 KCAL/MOL
REMARK 927      BINDING AFFINITY PREDICTED BY RF-SCORE:    0.00 PKD
ROOT
HETATM    1  C   UNL     1      -9.726   8.658  71.933  1.00  0.00    -0.313 C  
HETATM    2  O   UNL     1      -9.133   9.434  70.907  1.00  0.00    -0.236 OA 
ENDROOT
BRANCH   2   3
HETATM    3  P   UNL     1      -8.870   8.758  69.338  1.00  0.00    -0.148 P  
HETATM    4  S   UNL     1     -10.437   7.503  69.549  1.00  0.00    -0.226 S  
BRANCH   3   5
HETATM    5  N   UNL     1      -9.440  10.241  68.710  1.00  0.00    -0.168 NA 
HETATM    6  H   UNL     1      -9.109  10.528  67.789  1.00  0.00     0.000 HD 
BRANCH   5   7
HETATM    7  C   UNL     1     -10.375  11.128  69.410  1.00  0.00    -0.057 C  
HETATM    8  C   UNL     1     -10.361  12.524  68.784  1.00  0.00    -0.138 C  
HETATM    9  C   UNL     1     -11.812  10.596  69.415  1.00  0.00    -0.325 C  
ENDBRANCH   5   7
ENDBRANCH   3   5
BRANCH   3  10
HETATM   10  O   UNL     1      -8.605   8.082  67.768  1.00  0.00    -0.127 OA 
BRANCH  10  11
HETATM   11  C   UNL     1      -8.691   8.850  66.629  1.00  0.00    -0.127 A  
HETATM   12  C   UNL     1      -9.894   9.362  66.143  1.00  0.00    -0.356 A  
HETATM   13  C   UNL     1      -9.958   9.988  64.894  1.00  0.00    -0.286 A  
HETATM   14  C   UNL     1      -8.794  10.189  64.163  1.00  0.00    -0.222 A  
HETATM   15  C   UNL     1      -7.571   9.767  64.667  1.00  0.00    -0.134 A  
HETATM   16 CL   UNL     1      -8.876  10.971  62.635  1.00  0.00    -0.322 Cl 
HETATM   17  C   UNL     1      -7.521   9.085  65.893  1.00  0.00    -0.094 A  
HETATM   18 CL   UNL     1      -5.978   8.577  66.474  1.00  0.00    -0.051 Cl 
ENDBRANCH  10  11
ENDBRANCH   3  10
ENDBRANCH   2   3
TORSDOF 5
ENDMDL
MODEL      252
REMARK 921   NORMALIZED FREE ENERGY PREDICTED BY IDOCK:   -1.92 KCAL/MOL
REMARK 922        TOTAL FREE ENERGY PREDICTED BY IDOCK:   -2.91 KCAL/MOL
REMARK 923 INTER-LIGAND FREE ENERGY PREDICTED BY IDOCK:   -2.61 KCAL/MOL
REMARK 924 INTRA-LIGAND FREE ENERGY PREDICTED BY IDOCK:   -0.30 KCAL/MOL
REMARK 927      BINDING AFFINITY PREDICTED BY RF-SCORE:    0.00 PKD
ROOT
HETATM    1  C   UNL     1      -9.375   9.929  65.826  1.00  0.00    -0.204 C  
HETATM    2  O   UNL     1      -9.743  11.077  66.570  1.00  0.00    -0.190 OA 
ENDROOT
BRANCH   2   3
HETATM    3  P   UNL     1      -9.290  12.655  66.028  1.00  0.00     0.117 P  
HETATM    4  S   UNL     1     -10.251  12.393  64.272  1.00  0.00    -0.311 S  
BRANCH   3   5
HETATM    5  N   UNL     1     -10.404  13.262  67.173  1.00  0.00    -0.247 NA 
HETATM    6  H   UNL     1     -10.097  14.022  67.780  1.00  0.00     0.000 HD 
BRANCH   5   7
HETATM    7  C   UNL     1     -11.772  12.760  67.338  1.00  0.00    -0.366 C  
HETATM    8  C   UNL     1     -12.144  12.694  68.822  1.00  0.00    -0.155 C  
HETATM    9  C   UNL     1     -12.813  13.608  66.600  1.00  0.00     0.335 C  
ENDBRANCH   5   7
ENDBRANCH   3   5
BRANCH   3  10
HETATM   10  O   UNL     1      -8.837  14.234  65.486  1.00  0.00     0.788 OA 
BRANCH  10  11
HETATM   11  C   UNL     1      -8.947  15.335  66.304  1.00  0.00    -0.279 A  
HETATM   12  C   UNL     1      -8.094  15.576  67.380  1.00  0.00    -0.201 A  
HETATM   13  C   UNL     1      -8.350  16.611  68.285  1.00  0.00    -0.198 A  
HETATM   14  C   UNL     1      -9.416  17.473  68.063  1.00  0.00    -0.280 A  
HETATM   15  C   UNL     1     -10.228  17.307  66.949  1.00  0.00    -0.322 A  
HETATM   16 CL   UNL     1      -9.718  18.752  69.172  1.00  0.00    -0.302 Cl 
HETATM   17  C   UNL     1     -10.003  16.231  66.078  1.00  0.00    -0.345 A  
HETATM   18 CL   UNL     1     -11.043  16.065  64.711  1.00  0.00    -0.450 Cl 
ENDBRANCH  10  11
ENDBRANCH   3  10
ENDBRANCH   2   3
TORSDOF 5
ENDMDL
MODEL      253
REMARK 921   NORMALIZED FREE ENERGY PREDICTED BY IDOCK:   -1.91 KCAL/MOL
REMARK 922        TOTAL FREE ENERGY PREDICTED BY IDOCK:   -2.89 KCAL/MOL
REMARK 923 INTER-LIGAND FREE ENERGY PREDICTED BY IDOCK:   -2.42 KCAL/MOL
REMARK 924 INTRA-LIGAND FREE ENERGY PREDICTED BY IDOCK:   -0.47 KCAL/MOL
REMARK 927      BINDING AFFINITY PREDICTED BY RF-SCORE:    0.00 PKD
ROOT
HETATM    1  C   UNL     1      -9.272   6.589  65.851  1.00  0.00     0.012 C  
HETATM    2  O   UNL     1      -9.485   7.401  66.992  1.00  0.00    -0.142 OA 
ENDROOT
BRANCH   2   3
HETATM    3  P   UNL     1      -8.829   6.946  68.526  1.00  0.00    -0.120 P  
HETATM    4  S   UNL     1      -7.419   5.797  67.650  1.00  0.00    -0.078 S  
BRANCH   3   5
HETATM    5  N   UNL     1      -8.237   8.545  68.637  1.00  0.00    -0.121 NA 
HETATM    6  H   UNL     1      -7.783   8.943  67.815  1.00  0.00     0.000 HD 
BRANCH   5   7
HETATM    7  C   UNL     1      -8.339   9.380  69.838  1.00  0.00    -0.167 C  
HETATM    8  C   UNL     1      -7.331  10.531  69.778  1.00  0.00    -0.139 C  
HETATM    9  C   UNL     1      -9.743   9.955  70.047  1.00  0.00    -0.274 C  
ENDBRANCH   5   7
ENDBRANCH   3   5
BRANCH   3  10
HETATM   10  O   UNL     1      -8.173   6.491  70.061  1.00  0.00    -0.125 OA 
BRANCH  10  11
HETATM   11  C   UNL     1      -8.863   5.671  70.923  1.00  0.00    -0.140 A  
HETATM   12  C   UNL     1     -10.221   5.824  71.201  1.00  0.00    -0.275 A  
HETATM   13  C   UNL     1     -10.839   5.080  72.211  1.00  0.00    -0.207 A  
HETATM   14  C   UNL     1     -10.117   4.107  72.890  1.00  0.00    -0.159 A  
HETATM   15  C   UNL     1      -8.786   3.874  72.570  1.00  0.00    -0.118 A  
HETATM   16 CL   UNL     1     -10.885   3.186  74.122  1.00  0.00    -0.248 Cl 
HETATM   17  C   UNL     1      -8.155   4.665  71.598  1.00  0.00    -0.103 A  
HETATM   18 CL   UNL     1      -6.498   4.340  71.241  1.00  0.00    -0.018 Cl 
ENDBRANCH  10  11
ENDBRANCH   3  10
ENDBRANCH   2   3
TORSDOF 5
ENDMDL
MODEL      254
REMARK 921   NORMALIZED FREE ENERGY PREDICTED BY IDOCK:   -1.89 KCAL/MOL
REMARK 922        TOTAL FREE ENERGY PREDICTED BY IDOCK:   -2.87 KCAL/MOL
REMARK 923 INTER-LIGAND FREE ENERGY PREDICTED BY IDOCK:   -2.74 KCAL/MOL
REMARK 924 INTRA-LIGAND FREE ENERGY PREDICTED BY IDOCK:   -0.13 KCAL/MOL
REMARK 927      BINDING AFFINITY PREDICTED BY RF-SCORE:    0.00 PKD
ROOT
HETATM    1  C   UNL     1      -6.414   3.906  71.350  1.00  0.00    -0.015 C  
HETATM    2  O   UNL     1      -7.615   4.223  70.670  1.00  0.00    -0.050 OA 
ENDROOT
BRANCH   2   3
HETATM    3  P   UNL     1      -8.569   5.579  71.163  1.00  0.00    -0.128 P  
HETATM    4  S   UNL     1     -10.143   4.947  70.068  1.00  0.00    -0.241 S  
BRANCH   3   5
HETATM    5  N   UNL     1      -8.645   4.843  72.703  1.00  0.00    -0.118 NA 
HETATM    6  H   UNL     1      -7.865   4.994  73.342  1.00  0.00     0.000 HD 
BRANCH   5   7
HETATM    7  C   UNL     1      -9.759   4.008  73.163  1.00  0.00    -0.126 C  
HETATM    8  C   UNL     1      -9.287   2.574  73.414  1.00  0.00    -0.101 C  
HETATM    9  C   UNL     1     -10.422   4.546  74.435  1.00  0.00    -0.318 C  
ENDBRANCH   5   7
ENDBRANCH   3   5
BRANCH   3  10
HETATM   10  O   UNL     1      -9.522   6.937  71.655  1.00  0.00    -0.158 OA 
BRANCH  10  11
HETATM   11  C   UNL     1      -9.601   8.076  70.888  1.00  0.00    -0.161 A  
HETATM   12  C   UNL     1     -10.739   8.431  70.164  1.00  0.00    -0.238 A  
HETATM   13  C   UNL     1     -10.715   9.501  69.264  1.00  0.00    -0.240 A  
HETATM   14  C   UNL     1      -9.573  10.284  69.153  1.00  0.00    -0.218 A  
HETATM   15  C   UNL     1      -8.457  10.004  69.930  1.00  0.00    -0.171 A  
HETATM   16 CL   UNL     1      -9.554  11.607  68.056  1.00  0.00    -0.178 Cl 
HETATM   17  C   UNL     1      -8.465   8.892  70.787  1.00  0.00    -0.182 A  
HETATM   18 CL   UNL     1      -7.052   8.584  71.727  1.00  0.00    -0.097 Cl 
ENDBRANCH  10  11
ENDBRANCH   3  10
ENDBRANCH   2   3
TORSDOF 5
ENDMDL
MODEL      255
REMARK 921   NORMALIZED FREE ENERGY PREDICTED BY IDOCK:   -1.88 KCAL/MOL
REMARK 922        TOTAL FREE ENERGY PREDICTED BY IDOCK:   -2.86 KCAL/MOL
REMARK 923 INTER-LIGAND FREE ENERGY PREDICTED BY IDOCK:   -3.07 KCAL/MOL
REMARK 924 INTRA-LIGAND FREE ENERGY PREDICTED BY IDOCK:    0.22 KCAL/MOL
REMARK 927      BINDING AFFINITY PREDICTED BY RF-SCORE:    0.00 PKD
ROOT
HETATM    1  C   UNL     1      -7.630   8.452  67.477  1.00  0.00    -0.098 C  
HETATM    2  O   UNL     1      -8.838   9.110  67.140  1.00  0.00    -0.119 OA 
ENDROOT
BRANCH   2   3
HETATM    3  P   UNL     1      -8.841  10.799  66.766  1.00  0.00    -0.148 P  
HETATM    4  S   UNL     1      -8.324  10.436  64.849  1.00  0.00    -0.141 S  
BRANCH   3   5
HETATM    5  N   UNL     1     -10.543  10.725  66.895  1.00  0.00    -0.253 NA 
HETATM    6  H   UNL     1     -11.078  10.554  66.044  1.00  0.00     0.000 HD 
BRANCH   5   7
HETATM    7  C   UNL     1     -11.283  10.891  68.150  1.00  0.00    -0.301 C  
HETATM    8  C   UNL     1     -10.376  10.606  69.350  1.00  0.00    -0.234 C  
HETATM    9  C   UNL     1     -11.891  12.289  68.304  1.00  0.00    -0.367 C  
ENDBRANCH   5   7
ENDBRANCH   3   5
BRANCH   3  10
HETATM   10  O   UNL     1      -8.843  12.488  66.393  1.00  0.00    -0.141 OA 
BRANCH  10  11
HETATM   11  C   UNL     1      -8.316  13.417  67.261  1.00  0.00    -0.176 A  
HETATM   12  C   UNL     1      -9.042  14.503  67.750  1.00  0.00    -0.190 A  
HETATM   13  C   UNL     1      -8.418  15.513  68.488  1.00  0.00    -0.163 A  
HETATM   14  C   UNL     1      -7.074  15.395  68.820  1.00  0.00    -0.125 A  
HETATM   15  C   UNL     1      -6.352  14.279  68.420  1.00  0.00    -0.101 A  
HETATM   16 CL   UNL     1      -6.315  16.633  69.739  1.00  0.00    -0.215 Cl 
HETATM   17  C   UNL     1      -6.968  13.297  67.628  1.00  0.00    -0.160 A  
HETATM   18 CL   UNL     1      -6.026  11.932  67.151  1.00  0.00    -0.140 Cl 
ENDBRANCH  10  11
ENDBRANCH   3  10
ENDBRANCH   2   3
TORSDOF 5
ENDMDL
MODEL      256
REMARK 921   NORMALIZED FREE ENERGY PREDICTED BY IDOCK:   -1.87 KCAL/MOL
REMARK 922        TOTAL FREE ENERGY PREDICTED BY IDOCK:   -2.84 KCAL/MOL
REMARK 923 INTER-LIGAND FREE ENERGY PREDICTED BY IDOCK:   -2.53 KCAL/MOL
REMARK 924 INTRA-LIGAND FREE ENERGY PREDICTED BY IDOCK:   -0.31 KCAL/MOL
REMARK 927      BINDING AFFINITY PREDICTED BY RF-SCORE:    0.00 PKD
ROOT
HETATM    1  C   UNL     1      -7.814   7.256  65.205  1.00  0.00    -0.123 C  
HETATM    2  O   UNL     1      -8.895   7.903  65.853  1.00  0.00    -0.163 OA 
ENDROOT
BRANCH   2   3
HETATM    3  P   UNL     1      -8.835   8.219  67.552  1.00  0.00    -0.136 P  
HETATM    4  S   UNL     1      -7.053   9.151  67.376  1.00  0.00    -0.079 S  
BRANCH   3   5
HETATM    5  N   UNL     1     -10.076   9.362  67.284  1.00  0.00    -0.210 NA 
HETATM    6  H   UNL     1     -10.955   9.027  66.889  1.00  0.00     0.000 HD 
BRANCH   5   7
HETATM    7  C   UNL     1      -9.960  10.792  67.586  1.00  0.00    -0.173 C  
HETATM    8  C   UNL     1     -10.063  11.621  66.303  1.00  0.00    -0.254 C  
HETATM    9  C   UNL     1     -11.015  11.280  68.583  1.00  0.00    -0.266 C  
ENDBRANCH   5   7
ENDBRANCH   3   5
BRANCH   3  10
HETATM   10  O   UNL     1      -8.776   8.535  69.252  1.00  0.00    -0.131 OA 
BRANCH  10  11
HETATM   11  C   UNL     1      -8.352   7.579  70.147  1.00  0.00    -0.134 A  
HETATM   12  C   UNL     1      -7.013   7.394  70.489  1.00  0.00    -0.053 A  
HETATM   13  C   UNL     1      -6.613   6.302  71.266  1.00  0.00    -0.051 A  
HETATM   14  C   UNL     1      -7.569   5.437  71.784  1.00  0.00    -0.098 A  
HETATM   15  C   UNL     1      -8.916   5.653  71.530  1.00  0.00    -0.148 A  
HETATM   16 CL   UNL     1      -7.072   4.105  72.750  1.00  0.00    -0.060 Cl 
HETATM   17  C   UNL     1      -9.308   6.714  70.700  1.00  0.00    -0.162 A  
HETATM   18 CL   UNL     1     -10.994   6.937  70.411  1.00  0.00    -0.293 Cl 
ENDBRANCH  10  11
ENDBRANCH   3  10
ENDBRANCH   2   3
TORSDOF 5
ENDMDL
MODEL      257
REMARK 921   NORMALIZED FREE ENERGY PREDICTED BY IDOCK:   -1.86 KCAL/MOL
REMARK 922        TOTAL FREE ENERGY PREDICTED BY IDOCK:   -2.83 KCAL/MOL
REMARK 923 INTER-LIGAND FREE ENERGY PREDICTED BY IDOCK:   -3.20 KCAL/MOL
REMARK 924 INTRA-LIGAND FREE ENERGY PREDICTED BY IDOCK:    0.37 KCAL/MOL
REMARK 927      BINDING AFFINITY PREDICTED BY RF-SCORE:    0.00 PKD
ROOT
HETATM    1  C   UNL     1      -8.227  14.390  67.273  1.00  0.00    -0.203 C  
HETATM    2  O   UNL     1      -8.080  13.033  66.895  1.00  0.00    -0.085 OA 
ENDROOT
BRANCH   2   3
HETATM    3  P   UNL     1      -8.858  11.782  67.799  1.00  0.00    -0.178 P  
HETATM    4  S   UNL     1     -10.102  13.107  68.677  1.00  0.00    -0.074 S  
BRANCH   3   5
HETATM    5  N   UNL     1      -9.553  11.279  66.322  1.00  0.00    -0.203 NA 
HETATM    6  H   UNL     1      -9.374  10.324  66.012  1.00  0.00     0.000 HD 
BRANCH   5   7
HETATM    7  C   UNL     1     -10.388  12.132  65.471  1.00  0.00    -0.263 C  
HETATM    8  C   UNL     1     -10.629  11.466  64.114  1.00  0.00    -0.430 C  
HETATM    9  C   UNL     1     -11.740  12.470  66.108  1.00  0.00    -0.466 C  
ENDBRANCH   5   7
ENDBRANCH   3   5
BRANCH   3  10
HETATM   10  O   UNL     1      -9.636  10.529  68.705  1.00  0.00    -0.156 OA 
BRANCH  10  11
HETATM   11  C   UNL     1      -9.352   9.201  68.486  1.00  0.00    -0.135 A  
HETATM   12  C   UNL     1     -10.175   8.356  67.743  1.00  0.00    -0.283 A  
HETATM   13  C   UNL     1      -9.938   6.979  67.693  1.00  0.00    -0.194 A  
HETATM   14  C   UNL     1      -8.814   6.450  68.315  1.00  0.00    -0.115 A  
HETATM   15  C   UNL     1      -7.931   7.284  68.987  1.00  0.00    -0.119 A  
HETATM   16 CL   UNL     1      -8.519   4.758  68.239  1.00  0.00    -0.098 Cl 
HETATM   17  C   UNL     1      -8.207   8.657  69.085  1.00  0.00    -0.117 A  
HETATM   18 CL   UNL     1      -7.080   9.650  69.936  1.00  0.00    -0.080 Cl 
ENDBRANCH  10  11
ENDBRANCH   3  10
ENDBRANCH   2   3
TORSDOF 5
ENDMDL
MODEL      258
REMARK 921   NORMALIZED FREE ENERGY PREDICTED BY IDOCK:   -1.86 KCAL/MOL
REMARK 922        TOTAL FREE ENERGY PREDICTED BY IDOCK:   -2.82 KCAL/MOL
REMARK 923 INTER-LIGAND FREE ENERGY PREDICTED BY IDOCK:   -2.69 KCAL/MOL
REMARK 924 INTRA-LIGAND FREE ENERGY PREDICTED BY IDOCK:   -0.14 KCAL/MOL
REMARK 927      BINDING AFFINITY PREDICTED BY RF-SCORE:    0.00 PKD
ROOT
HETATM    1  C   UNL     1      -9.621   9.255  65.867  1.00  0.00    -0.275 C  
HETATM    2  O   UNL     1      -9.298   9.789  67.138  1.00  0.00    -0.139 OA 
ENDROOT
BRANCH   2   3
HETATM    3  P   UNL     1      -8.318  11.208  67.270  1.00  0.00    -0.145 P  
HETATM    4  S   UNL     1      -9.729  12.339  66.373  1.00  0.00    -0.236 S  
BRANCH   3   5
HETATM    5  N   UNL     1      -8.643  11.159  68.946  1.00  0.00    -0.308 NA 
HETATM    6  H   UNL     1      -8.505  12.015  69.483  1.00  0.00     0.000 HD 
BRANCH   5   7
HETATM    7  C   UNL     1      -9.108   9.966  69.661  1.00  0.00    -0.227 C  
HETATM    8  C   UNL     1      -8.158   9.628  70.814  1.00  0.00     0.046 C  
HETATM    9  C   UNL     1     -10.529  10.116  70.212  1.00  0.00    -0.284 C  
ENDBRANCH   5   7
ENDBRANCH   3   5
BRANCH   3  10
HETATM   10  O   UNL     1      -7.336  12.627  67.401  1.00  0.00    -0.140 OA 
BRANCH  10  11
HETATM   11  C   UNL     1      -6.746  12.986  68.591  1.00  0.00    -0.096 A  
HETATM   12  C   UNL     1      -5.838  12.173  69.269  1.00  0.00    -0.079 A  
HETATM   13  C   UNL     1      -5.399  12.500  70.555  1.00  0.00    -0.148 A  
HETATM   14  C   UNL     1      -5.797  13.698  71.136  1.00  0.00    -0.139 A  
HETATM   15  C   UNL     1      -6.631  14.566  70.444  1.00  0.00    -0.044 A  
HETATM   16 CL   UNL     1      -5.243  14.102  72.713  1.00  0.00    -0.240 Cl 
HETATM   17  C   UNL     1      -7.117  14.204  69.179  1.00  0.00    -0.099 A  
HETATM   18 CL   UNL     1      -8.155  15.315  68.362  1.00  0.00    -0.133 Cl 
ENDBRANCH  10  11
ENDBRANCH   3  10
ENDBRANCH   2   3
TORSDOF 5
ENDMDL
MODEL      259
REMARK 921   NORMALIZED FREE ENERGY PREDICTED BY IDOCK:   -1.85 KCAL/MOL
REMARK 922        TOTAL FREE ENERGY PREDICTED BY IDOCK:   -2.81 KCAL/MOL
REMARK 923 INTER-LIGAND FREE ENERGY PREDICTED BY IDOCK:   -2.47 KCAL/MOL
REMARK 924 INTRA-LIGAND FREE ENERGY PREDICTED BY IDOCK:   -0.34 KCAL/MOL
REMARK 927      BINDING AFFINITY PREDICTED BY RF-SCORE:    0.00 PKD
ROOT
HETATM    1  C   UNL     1      -5.957   3.914  73.202  1.00  0.00    -0.011 C  
HETATM    2  O   UNL     1      -6.790   3.575  72.108  1.00  0.00    -0.022 OA 
ENDROOT
BRANCH   2   3
HETATM    3  P   UNL     1      -7.681   4.799  71.273  1.00  0.00    -0.086 P  
HETATM    4  S   UNL     1      -6.895   6.250  72.435  1.00  0.00    -0.070 S  
BRANCH   3   5
HETATM    5  N   UNL     1      -6.630   4.527  69.954  1.00  0.00    -0.032 NA 
HETATM    6  H   UNL     1      -6.025   3.707  69.988  1.00  0.00     0.000 HD 
BRANCH   5   7
HETATM    7  C   UNL     1      -6.541   5.398  68.778  1.00  0.00    -0.051 C  
HETATM    8  C   UNL     1      -5.231   6.189  68.793  1.00  0.00    -0.004 C  
HETATM    9  C   UNL     1      -6.645   4.629  67.456  1.00  0.00    -0.047 C  
ENDBRANCH   5   7
ENDBRANCH   3   5
BRANCH   3  10
HETATM   10  O   UNL     1      -8.574   6.022  70.437  1.00  0.00    -0.129 OA 
BRANCH  10  11
HETATM   11  C   UNL     1      -9.860   6.351  70.801  1.00  0.00    -0.184 A  
HETATM   12  C   UNL     1     -10.435   5.959  72.009  1.00  0.00    -0.259 A  
HETATM   13  C   UNL     1     -11.795   6.165  72.261  1.00  0.00    -0.326 A  
HETATM   14  C   UNL     1     -12.570   6.853  71.336  1.00  0.00    -0.353 A  
HETATM   15  C   UNL     1     -11.999   7.332  70.165  1.00  0.00     0.043 A  
HETATM   16 CL   UNL     1     -14.238   7.117  71.657  1.00  0.00    -0.534 Cl 
HETATM   17  C   UNL     1     -10.648   7.068  69.890  1.00  0.00    -0.229 A  
HETATM   18 CL   UNL     1      -9.987   7.680  68.418  1.00  0.00    -0.180 Cl 
ENDBRANCH  10  11
ENDBRANCH   3  10
ENDBRANCH   2   3
TORSDOF 5
ENDMDL
MODEL      260
REMARK 921   NORMALIZED FREE ENERGY PREDICTED BY IDOCK:   -1.77 KCAL/MOL
REMARK 922        TOTAL FREE ENERGY PREDICTED BY IDOCK:   -2.70 KCAL/MOL
REMARK 923 INTER-LIGAND FREE ENERGY PREDICTED BY IDOCK:   -2.18 KCAL/MOL
REMARK 924 INTRA-LIGAND FREE ENERGY PREDICTED BY IDOCK:   -0.52 KCAL/MOL
REMARK 927      BINDING AFFINITY PREDICTED BY RF-SCORE:    0.00 PKD
ROOT
HETATM    1  C   UNL     1     -11.215   6.112  69.092  1.00  0.00    -0.339 C  
HETATM    2  O   UNL     1     -10.838   7.436  69.427  1.00  0.00    -0.232 OA 
ENDROOT
BRANCH   2   3
HETATM    3  P   UNL     1      -9.300   8.058  68.939  1.00  0.00    -0.151 P  
HETATM    4  S   UNL     1      -9.474   9.633  70.189  1.00  0.00    -0.233 S  
BRANCH   3   5
HETATM    5  N   UNL     1      -8.609   6.754  69.799  1.00  0.00    -0.139 NA 
HETATM    6  H   UNL     1      -8.571   5.846  69.337  1.00  0.00     0.000 HD 
BRANCH   5   7
HETATM    7  C   UNL     1      -8.067   6.857  71.158  1.00  0.00    -0.110 C  
HETATM    8  C   UNL     1      -8.718   5.818  72.075  1.00  0.00    -0.137 C  
HETATM    9  C   UNL     1      -6.545   6.685  71.209  1.00  0.00    -0.050 C  
ENDBRANCH   5   7
ENDBRANCH   3   5
BRANCH   3  10
HETATM   10  O   UNL     1      -7.761   8.681  68.451  1.00  0.00    -0.097 OA 
BRANCH  10  11
HETATM   11  C   UNL     1      -7.528   9.088  67.157  1.00  0.00    -0.087 A  
HETATM   12  C   UNL     1      -7.817  10.372  66.697  1.00  0.00    -0.120 A  
HETATM   13  C   UNL     1      -7.726  10.687  65.338  1.00  0.00    -0.051 A  
HETATM   14  C   UNL     1      -7.252   9.739  64.439  1.00  0.00    -0.129 A  
HETATM   15  C   UNL     1      -6.874   8.481  64.888  1.00  0.00    -0.072 A  
HETATM   16 CL   UNL     1      -7.129  10.136  62.772  1.00  0.00    -0.126 Cl 
HETATM   17  C   UNL     1      -7.025   8.150  66.244  1.00  0.00    -0.062 A  
HETATM   18 CL   UNL     1      -6.545   6.572  66.750  1.00  0.00    -0.046 Cl 
ENDBRANCH  10  11
ENDBRANCH   3  10
ENDBRANCH   2   3
TORSDOF 5
ENDMDL
MODEL      261
REMARK 921   NORMALIZED FREE ENERGY PREDICTED BY IDOCK:   -1.73 KCAL/MOL
REMARK 922        TOTAL FREE ENERGY PREDICTED BY IDOCK:   -2.65 KCAL/MOL
REMARK 923 INTER-LIGAND FREE ENERGY PREDICTED BY IDOCK:   -3.50 KCAL/MOL
REMARK 924 INTRA-LIGAND FREE ENERGY PREDICTED BY IDOCK:    0.85 KCAL/MOL
REMARK 927      BINDING AFFINITY PREDICTED BY RF-SCORE:    0.00 PKD
ROOT
HETATM    1  C   UNL     1      -8.952   9.964  66.248  1.00  0.00    -0.145 C  
HETATM    2  O   UNL     1      -8.533  10.603  67.440  1.00  0.00    -0.122 OA 
ENDROOT
BRANCH   2   3
HETATM    3  P   UNL     1      -9.546  10.594  68.842  1.00  0.00    -0.166 P  
HETATM    4  S   UNL     1     -10.997   9.591  67.860  1.00  0.00     0.004 S  
BRANCH   3   5
HETATM    5  N   UNL     1      -8.453   9.460  69.504  1.00  0.00    -0.140 NA 
HETATM    6  H   UNL     1      -8.840   8.680  70.035  1.00  0.00     0.000 HD 
BRANCH   5   7
HETATM    7  C   UNL     1      -6.996   9.537  69.359  1.00  0.00    -0.050 C  
HETATM    8  C   UNL     1      -6.419  10.600  70.297  1.00  0.00    -0.138 C  
HETATM    9  C   UNL     1      -6.297   8.201  69.628  1.00  0.00    -0.033 C  
ENDBRANCH   5   7
ENDBRANCH   3   5
BRANCH   3  10
HETATM   10  O   UNL     1     -10.559  10.586  70.244  1.00  0.00    -0.212 OA 
BRANCH  10  11
HETATM   11  C   UNL     1     -10.685   9.466  71.034  1.00  0.00    -0.337 A  
HETATM   12  C   UNL     1      -9.594   8.726  71.490  1.00  0.00    -0.354 A  
HETATM   13  C   UNL     1      -9.775   7.503  72.141  1.00  0.00    -0.204 A  
HETATM   14  C   UNL     1     -11.060   7.055  72.425  1.00  0.00    -0.259 A  
HETATM   15  C   UNL     1     -12.161   7.818  72.059  1.00  0.00    -0.351 A  
HETATM   16 CL   UNL     1     -11.276   5.557  73.238  1.00  0.00    -0.319 Cl 
HETATM   17  C   UNL     1     -11.975   9.016  71.352  1.00  0.00    -0.332 A  
HETATM   18 CL   UNL     1     -13.376   9.925  70.916  1.00  0.00    -0.343 Cl 
ENDBRANCH  10  11
ENDBRANCH   3  10
ENDBRANCH   2   3
TORSDOF 5
ENDMDL
MODEL      262
REMARK 921   NORMALIZED FREE ENERGY PREDICTED BY IDOCK:   -1.72 KCAL/MOL
REMARK 922        TOTAL FREE ENERGY PREDICTED BY IDOCK:   -2.64 KCAL/MOL
REMARK 923 INTER-LIGAND FREE ENERGY PREDICTED BY IDOCK:   -3.22 KCAL/MOL
REMARK 924 INTRA-LIGAND FREE ENERGY PREDICTED BY IDOCK:    0.58 KCAL/MOL
REMARK 927      BINDING AFFINITY PREDICTED BY RF-SCORE:    0.00 PKD
ROOT
HETATM    1  C   UNL     1      -9.057   4.711  68.210  1.00  0.00    -0.120 C  
HETATM    2  O   UNL     1      -9.643   5.957  68.543  1.00  0.00    -0.119 OA 
ENDROOT
BRANCH   2   3
HETATM    3  P   UNL     1      -8.849   7.437  68.133  1.00  0.00    -0.124 P  
HETATM    4  S   UNL     1     -10.428   8.049  67.033  1.00  0.00    -0.293 S  
BRANCH   3   5
HETATM    5  N   UNL     1      -9.100   7.908  69.756  1.00  0.00    -0.146 NA 
HETATM    6  H   UNL     1      -8.387   8.486  70.200  1.00  0.00     0.000 HD 
BRANCH   5   7
HETATM    7  C   UNL     1     -10.275   7.536  70.550  1.00  0.00    -0.201 C  
HETATM    8  C   UNL     1      -9.851   6.798  71.822  1.00  0.00    -0.170 C  
HETATM    9  C   UNL     1     -11.142   8.739  70.935  1.00  0.00    -0.320 C  
ENDBRANCH   5   7
ENDBRANCH   3   5
BRANCH   3  10
HETATM   10  O   UNL     1      -8.054   8.918  67.722  1.00  0.00    -0.105 OA 
BRANCH  10  11
HETATM   11  C   UNL     1      -8.758  10.085  67.536  1.00  0.00    -0.125 A  
HETATM   12  C   UNL     1      -9.385  10.773  68.574  1.00  0.00    -0.174 A  
HETATM   13  C   UNL     1     -10.232  11.854  68.314  1.00  0.00    -0.207 A  
HETATM   14  C   UNL     1     -10.383  12.315  67.012  1.00  0.00    -0.219 A  
HETATM   15  C   UNL     1      -9.699  11.701  65.971  1.00  0.00    -0.257 A  
HETATM   16 CL   UNL     1     -11.415  13.654  66.700  1.00  0.00    -0.345 Cl 
HETATM   17  C   UNL     1      -8.898  10.578  66.230  1.00  0.00    -0.159 A  
HETATM   18 CL   UNL     1      -8.073   9.849  64.902  1.00  0.00    -0.138 Cl 
ENDBRANCH  10  11
ENDBRANCH   3  10
ENDBRANCH   2   3
TORSDOF 5
ENDMDL
MODEL      263
REMARK 921   NORMALIZED FREE ENERGY PREDICTED BY IDOCK:   -1.71 KCAL/MOL
REMARK 922        TOTAL FREE ENERGY PREDICTED BY IDOCK:   -2.63 KCAL/MOL
REMARK 923 INTER-LIGAND FREE ENERGY PREDICTED BY IDOCK:   -2.35 KCAL/MOL
REMARK 924 INTRA-LIGAND FREE ENERGY PREDICTED BY IDOCK:   -0.28 KCAL/MOL
REMARK 927      BINDING AFFINITY PREDICTED BY RF-SCORE:    0.00 PKD
ROOT
HETATM    1  C   UNL     1      -6.463   8.132  66.899  1.00  0.00    -0.057 C  
HETATM    2  O   UNL     1      -6.899   7.021  67.661  1.00  0.00    -0.068 OA 
ENDROOT
BRANCH   2   3
HETATM    3  P   UNL     1      -7.722   7.256  69.163  1.00  0.00    -0.111 P  
HETATM    4  S   UNL     1      -8.638   8.916  68.471  1.00  0.00    -0.134 S  
BRANCH   3   5
HETATM    5  N   UNL     1      -8.669   5.897  68.746  1.00  0.00    -0.110 NA 
HETATM    6  H   UNL     1      -9.646   5.889  69.039  1.00  0.00     0.000 HD 
BRANCH   5   7
HETATM    7  C   UNL     1      -8.168   4.742  67.994  1.00  0.00    -0.095 C  
HETATM    8  C   UNL     1      -8.575   3.436  68.681  1.00  0.00    -0.123 C  
HETATM    9  C   UNL     1      -8.657   4.717  66.542  1.00  0.00    -0.112 C  
ENDBRANCH   5   7
ENDBRANCH   3   5
BRANCH   3  10
HETATM   10  O   UNL     1      -8.545   7.491  70.667  1.00  0.00    -0.134 OA 
BRANCH  10  11
HETATM   11  C   UNL     1      -8.852   6.434  71.492  1.00  0.00    -0.137 A  
HETATM   12  C   UNL     1      -7.886   5.671  72.147  1.00  0.00    -0.103 A  
HETATM   13  C   UNL     1      -8.233   4.503  72.833  1.00  0.00    -0.096 A  
HETATM   14  C   UNL     1      -9.570   4.142  72.947  1.00  0.00    -0.129 A  
HETATM   15  C   UNL     1     -10.558   4.934  72.379  1.00  0.00    -0.263 A  
HETATM   16 CL   UNL     1      -9.993   2.713  73.804  1.00  0.00    -0.145 Cl 
HETATM   17  C   UNL     1     -10.199   6.072  71.639  1.00  0.00    -0.201 A  
HETATM   18 CL   UNL     1     -11.464   7.021  70.948  1.00  0.00    -0.328 Cl 
ENDBRANCH  10  11
ENDBRANCH   3  10
ENDBRANCH   2   3
TORSDOF 5
ENDMDL
MODEL      264
REMARK 921   NORMALIZED FREE ENERGY PREDICTED BY IDOCK:   -1.53 KCAL/MOL
REMARK 922        TOTAL FREE ENERGY PREDICTED BY IDOCK:   -2.39 KCAL/MOL
REMARK 923 INTER-LIGAND FREE ENERGY PREDICTED BY IDOCK:   -2.16 KCAL/MOL
REMARK 924 INTRA-LIGAND FREE ENERGY PREDICTED BY IDOCK:   -0.23 KCAL/MOL
REMARK 927      BINDING AFFINITY PREDICTED BY RF-SCORE:    0.00 PKD
ROOT
HETATM    1  C   UNL     1      -7.083  11.100  66.354  1.00  0.00    -0.091 C  
HETATM    2  O   UNL     1      -7.972  10.372  65.526  1.00  0.00    -0.147 OA 
ENDROOT
BRANCH   2   3
HETATM    3  P   UNL     1      -8.281   8.699  65.830  1.00  0.00    -0.138 P  
HETATM    4  S   UNL     1      -9.788   9.146  67.097  1.00  0.00    -0.213 S  
BRANCH   3   5
HETATM    5  N   UNL     1      -8.907   8.626  64.242  1.00  0.00    -0.415 NA 
HETATM    6  H   UNL     1      -9.921   8.614  64.130  1.00  0.00     0.000 HD 
BRANCH   5   7
HETATM    7  C   UNL     1      -8.082   8.579  63.032  1.00  0.00    -0.174 C  
HETATM    8  C   UNL     1      -7.863   9.989  62.477  1.00  0.00    -0.139 C  
HETATM    9  C   UNL     1      -6.720   7.916  63.263  1.00  0.00    -0.075 C  
ENDBRANCH   5   7
ENDBRANCH   3   5
BRANCH   3  10
HETATM   10  O   UNL     1      -8.590   7.024  66.135  1.00  0.00    -0.132 OA 
BRANCH  10  11
HETATM   11  C   UNL     1      -8.037   6.375  67.215  1.00  0.00    -0.113 A  
HETATM   12  C   UNL     1      -6.749   6.633  67.684  1.00  0.00    -0.070 A  
HETATM   13  C   UNL     1      -6.167   5.831  68.670  1.00  0.00    -0.029 A  
HETATM   14  C   UNL     1      -6.911   4.818  69.263  1.00  0.00    -0.050 A  
HETATM   15  C   UNL     1      -8.226   4.600  68.876  1.00  0.00    -0.081 A  
HETATM   16 CL   UNL     1      -6.195   3.845  70.486  1.00  0.00    -0.018 Cl 
HETATM   17  C   UNL     1      -8.784   5.368  67.842  1.00  0.00    -0.106 A  
HETATM   18 CL   UNL     1     -10.421   5.053  67.394  1.00  0.00    -0.172 Cl 
ENDBRANCH  10  11
ENDBRANCH   3  10
ENDBRANCH   2   3
TORSDOF 5
ENDMDL
MODEL      265
REMARK 921   NORMALIZED FREE ENERGY PREDICTED BY IDOCK:   -1.52 KCAL/MOL
REMARK 922        TOTAL FREE ENERGY PREDICTED BY IDOCK:   -2.38 KCAL/MOL
REMARK 923 INTER-LIGAND FREE ENERGY PREDICTED BY IDOCK:   -2.60 KCAL/MOL
REMARK 924 INTRA-LIGAND FREE ENERGY PREDICTED BY IDOCK:    0.22 KCAL/MOL
REMARK 927      BINDING AFFINITY PREDICTED BY RF-SCORE:    0.00 PKD
ROOT
HETATM    1  C   UNL     1      -5.527   3.817  65.514  1.00  0.00    -0.010 C  
HETATM    2  O   UNL     1      -6.812   3.586  64.965  1.00  0.00    -0.046 OA 
ENDROOT
BRANCH   2   3
HETATM    3  P   UNL     1      -8.220   3.666  65.966  1.00  0.00    -0.103 P  
HETATM    4  S   UNL     1      -8.655   5.525  65.308  1.00  0.00    -0.130 S  
BRANCH   3   5
HETATM    5  N   UNL     1      -8.923   2.532  64.899  1.00  0.00    -0.123 NA 
HETATM    6  H   UNL     1      -9.034   1.574  65.228  1.00  0.00     0.000 HD 
BRANCH   5   7
HETATM    7  C   UNL     1      -9.378   2.849  63.542  1.00  0.00    -0.097 C  
HETATM    8  C   UNL     1      -9.445   1.581  62.688  1.00  0.00    -0.088 C  
HETATM    9  C   UNL     1     -10.745   3.541  63.516  1.00  0.00    -0.254 C  
ENDBRANCH   5   7
ENDBRANCH   3   5
BRANCH   3  10
HETATM   10  O   UNL     1      -9.628   3.746  66.968  1.00  0.00    -0.206 OA 
BRANCH  10  11
HETATM   11  C   UNL     1      -9.532   3.883  68.333  1.00  0.00    -0.147 A  
HETATM   12  C   UNL     1      -9.221   2.826  69.187  1.00  0.00    -0.215 A  
HETATM   13  C   UNL     1      -9.306   2.971  70.575  1.00  0.00    -0.223 A  
HETATM   14  C   UNL     1      -9.614   4.212  71.121  1.00  0.00    -0.179 A  
HETATM   15  C   UNL     1      -9.840   5.302  70.292  1.00  0.00    -0.284 A  
HETATM   16 CL   UNL     1      -9.702   4.388  72.829  1.00  0.00    -0.174 Cl 
HETATM   17  C   UNL     1      -9.814   5.135  68.899  1.00  0.00    -0.172 A  
HETATM   18 CL   UNL     1     -10.107   6.521  67.913  1.00  0.00    -0.153 Cl 
ENDBRANCH  10  11
ENDBRANCH   3  10
ENDBRANCH   2   3
TORSDOF 5
ENDMDL
MODEL      266
REMARK 921   NORMALIZED FREE ENERGY PREDICTED BY IDOCK:   -1.39 KCAL/MOL
REMARK 922        TOTAL FREE ENERGY PREDICTED BY IDOCK:   -2.22 KCAL/MOL
REMARK 923 INTER-LIGAND FREE ENERGY PREDICTED BY IDOCK:   -1.81 KCAL/MOL
REMARK 924 INTRA-LIGAND FREE ENERGY PREDICTED BY IDOCK:   -0.40 KCAL/MOL
REMARK 927      BINDING AFFINITY PREDICTED BY RF-SCORE:    0.00 PKD
ROOT
HETATM    1  C   UNL     1      -5.312   6.506  67.477  1.00  0.00    -0.005 C  
HETATM    2  O   UNL     1      -6.032   5.375  67.021  1.00  0.00    -0.021 OA 
ENDROOT
BRANCH   2   3
HETATM    3  P   UNL     1      -7.687   5.151  67.469  1.00  0.00    -0.092 P  
HETATM    4  S   UNL     1      -8.302   6.507  66.106  1.00  0.00    -0.134 S  
BRANCH   3   5
HETATM    5  N   UNL     1      -7.585   3.624  66.710  1.00  0.00    -0.079 NA 
HETATM    6  H   UNL     1      -7.927   3.543  65.753  1.00  0.00     0.000 HD 
BRANCH   5   7
HETATM    7  C   UNL     1      -7.036   2.422  67.346  1.00  0.00    -0.044 C  
HETATM    8  C   UNL     1      -8.164   1.519  67.852  1.00  0.00    -0.068 C  
HETATM    9  C   UNL     1      -6.129   1.613  66.413  1.00  0.00    -0.019 C  
ENDBRANCH   5   7
ENDBRANCH   3   5
BRANCH   3  10
HETATM   10  O   UNL     1      -9.343   4.927  67.918  1.00  0.00    -0.118 OA 
BRANCH  10  11
HETATM   11  C   UNL     1      -9.830   5.382  69.122  1.00  0.00    -0.177 A  
HETATM   12  C   UNL     1      -9.325   4.971  70.355  1.00  0.00    -0.216 A  
HETATM   13  C   UNL     1      -9.961   5.324  71.548  1.00  0.00    -0.241 A  
HETATM   14  C   UNL     1     -11.061   6.173  71.519  1.00  0.00    -0.286 A  
HETATM   15  C   UNL     1     -11.529   6.667  70.308  1.00  0.00    -0.449 A  
HETATM   16 CL   UNL     1     -11.831   6.615  72.990  1.00  0.00     0.212 Cl 
HETATM   17  C   UNL     1     -10.923   6.261  69.109  1.00  0.00    -0.377 A  
HETATM   18 CL   UNL     1     -11.545   6.899  67.631  1.00  0.00     0.299 Cl 
ENDBRANCH  10  11
ENDBRANCH   3  10
ENDBRANCH   2   3
TORSDOF 5
ENDMDL
MODEL      267
REMARK 921   NORMALIZED FREE ENERGY PREDICTED BY IDOCK:   -1.39 KCAL/MOL
REMARK 922        TOTAL FREE ENERGY PREDICTED BY IDOCK:   -2.21 KCAL/MOL
REMARK 923 INTER-LIGAND FREE ENERGY PREDICTED BY IDOCK:   -2.24 KCAL/MOL
REMARK 924 INTRA-LIGAND FREE ENERGY PREDICTED BY IDOCK:    0.03 KCAL/MOL
REMARK 927      BINDING AFFINITY PREDICTED BY RF-SCORE:    0.00 PKD
ROOT
HETATM    1  C   UNL     1     -10.858   5.611  66.695  1.00  0.00    -0.204 C  
HETATM    2  O   UNL     1      -9.694   6.072  67.358  1.00  0.00    -0.109 OA 
ENDROOT
BRANCH   2   3
HETATM    3  P   UNL     1      -9.269   5.451  68.915  1.00  0.00    -0.130 P  
HETATM    4  S   UNL     1     -11.034   6.039  69.699  1.00  0.00    -0.393 S  
BRANCH   3   5
HETATM    5  N   UNL     1      -9.464   3.894  68.240  1.00  0.00    -0.163 NA 
HETATM    6  H   UNL     1     -10.399   3.488  68.241  1.00  0.00     0.000 HD 
BRANCH   5   7
HETATM    7  C   UNL     1      -8.373   3.105  67.660  1.00  0.00    -0.082 C  
HETATM    8  C   UNL     1      -8.100   1.861  68.509  1.00  0.00    -0.068 C  
HETATM    9  C   UNL     1      -8.651   2.673  66.216  1.00  0.00    -0.112 C  
ENDBRANCH   5   7
ENDBRANCH   3   5
BRANCH   3  10
HETATM   10  O   UNL     1      -8.842   4.830  70.473  1.00  0.00    -0.103 OA 
BRANCH  10  11
HETATM   11  C   UNL     1      -8.467   5.664  71.502  1.00  0.00    -0.128 A  
HETATM   12  C   UNL     1      -9.369   6.190  72.426  1.00  0.00    -0.146 A  
HETATM   13  C   UNL     1      -8.973   7.166  73.345  1.00  0.00    -0.184 A  
HETATM   14  C   UNL     1      -7.640   7.556  73.405  1.00  0.00    -0.101 A  
HETATM   15  C   UNL     1      -6.706   6.981  72.554  1.00  0.00    -0.061 A  
HETATM   16 CL   UNL     1      -7.155   8.747  74.545  1.00  0.00    -0.158 Cl 
HETATM   17  C   UNL     1      -7.121   6.046  71.593  1.00  0.00    -0.078 A  
HETATM   18 CL   UNL     1      -5.922   5.365  70.556  1.00  0.00    -0.021 Cl 
ENDBRANCH  10  11
ENDBRANCH   3  10
ENDBRANCH   2   3
TORSDOF 5
ENDMDL
MODEL      268
REMARK 921   NORMALIZED FREE ENERGY PREDICTED BY IDOCK:   -1.28 KCAL/MOL
REMARK 922        TOTAL FREE ENERGY PREDICTED BY IDOCK:   -2.07 KCAL/MOL
REMARK 923 INTER-LIGAND FREE ENERGY PREDICTED BY IDOCK:   -1.63 KCAL/MOL
REMARK 924 INTRA-LIGAND FREE ENERGY PREDICTED BY IDOCK:   -0.44 KCAL/MOL
REMARK 927      BINDING AFFINITY PREDICTED BY RF-SCORE:    0.00 PKD
ROOT
HETATM    1  C   UNL     1      -7.163   4.717  73.317  1.00  0.00    -0.080 C  
HETATM    2  O   UNL     1      -7.255   4.271  71.976  1.00  0.00    -0.056 OA 
ENDROOT
BRANCH   2   3
HETATM    3  P   UNL     1      -7.779   5.348  70.729  1.00  0.00    -0.093 P  
HETATM    4  S   UNL     1      -9.435   4.244  70.389  1.00  0.00    -0.191 S  
BRANCH   3   5
HETATM    5  N   UNL     1      -8.118   6.469  71.973  1.00  0.00    -0.107 NA 
HETATM    6  H   UNL     1      -7.665   6.328  72.876  1.00  0.00     0.000 HD 
BRANCH   5   7
HETATM    7  C   UNL     1      -9.016   7.618  71.826  1.00  0.00    -0.119 C  
HETATM    8  C   UNL     1     -10.349   7.351  72.527  1.00  0.00    -0.272 C  
HETATM    9  C   UNL     1      -8.416   8.919  72.371  1.00  0.00     0.194 C  
ENDBRANCH   5   7
ENDBRANCH   3   5
BRANCH   3  10
HETATM   10  O   UNL     1      -8.303   6.425  69.481  1.00  0.00    -0.123 OA 
BRANCH  10  11
HETATM   11  C   UNL     1      -7.967   6.218  68.163  1.00  0.00    -0.108 A  
HETATM   12  C   UNL     1      -7.023   5.276  67.755  1.00  0.00    -0.065 A  
HETATM   13  C   UNL     1      -6.587   5.221  66.427  1.00  0.00    -0.052 A  
HETATM   14  C   UNL     1      -7.167   6.051  65.476  1.00  0.00    -0.074 A  
HETATM   15  C   UNL     1      -8.173   6.935  65.842  1.00  0.00    -0.129 A  
HETATM   16 CL   UNL     1      -6.638   5.968  63.843  1.00  0.00    -0.036 Cl 
HETATM   17  C   UNL     1      -8.563   7.029  67.186  1.00  0.00    -0.121 A  
HETATM   18 CL   UNL     1      -9.814   8.148  67.590  1.00  0.00    -0.200 Cl 
ENDBRANCH  10  11
ENDBRANCH   3  10
ENDBRANCH   2   3
TORSDOF 5
ENDMDL
MODEL      269
REMARK 921   NORMALIZED FREE ENERGY PREDICTED BY IDOCK:   -1.25 KCAL/MOL
REMARK 922        TOTAL FREE ENERGY PREDICTED BY IDOCK:   -2.03 KCAL/MOL
REMARK 923 INTER-LIGAND FREE ENERGY PREDICTED BY IDOCK:   -2.73 KCAL/MOL
REMARK 924 INTRA-LIGAND FREE ENERGY PREDICTED BY IDOCK:    0.70 KCAL/MOL
REMARK 927      BINDING AFFINITY PREDICTED BY RF-SCORE:    0.00 PKD
ROOT
HETATM    1  C   UNL     1     -10.307   5.651  69.118  1.00  0.00    -0.258 C  
HETATM    2  O   UNL     1      -9.952   6.956  69.539  1.00  0.00    -0.161 OA 
ENDROOT
BRANCH   2   3
HETATM    3  P   UNL     1      -9.035   7.993  68.502  1.00  0.00    -0.131 P  
HETATM    4  S   UNL     1     -10.565   9.302  68.358  1.00  0.00    -0.152 S  
BRANCH   3   5
HETATM    5  N   UNL     1      -8.108   8.389  69.881  1.00  0.00    -0.116 NA 
HETATM    6  H   UNL     1      -8.475   9.098  70.515  1.00  0.00     0.000 HD 
BRANCH   5   7
HETATM    7  C   UNL     1      -6.817   7.776  70.211  1.00  0.00    -0.046 C  
HETATM    8  C   UNL     1      -5.765   8.853  70.486  1.00  0.00    -0.027 C  
HETATM    9  C   UNL     1      -6.895   6.833  71.416  1.00  0.00    -0.062 C  
ENDBRANCH   5   7
ENDBRANCH   3   5
BRANCH   3  10
HETATM   10  O   UNL     1      -8.118   9.029  67.465  1.00  0.00    -0.107 OA 
BRANCH  10  11
HETATM   11  C   UNL     1      -8.427  10.362  67.323  1.00  0.00    -0.122 A  
HETATM   12  C   UNL     1      -8.105  11.327  68.277  1.00  0.00    -0.137 A  
HETATM   13  C   UNL     1      -8.590  12.634  68.174  1.00  0.00    -0.188 A  
HETATM   14  C   UNL     1      -9.328  13.009  67.057  1.00  0.00    -0.236 A  
HETATM   15  C   UNL     1      -9.585  12.089  66.050  1.00  0.00    -0.247 A  
HETATM   16 CL   UNL     1      -9.909  14.621  66.927  1.00  0.00    -0.243 Cl 
HETATM   17  C   UNL     1      -9.148  10.763  66.189  1.00  0.00    -0.174 A  
HETATM   18 CL   UNL     1      -9.499   9.657  64.911  1.00  0.00    -0.325 Cl 
ENDBRANCH  10  11
ENDBRANCH   3  10
ENDBRANCH   2   3
TORSDOF 5
ENDMDL
MODEL      270
REMARK 921   NORMALIZED FREE ENERGY PREDICTED BY IDOCK:   -1.24 KCAL/MOL
REMARK 922        TOTAL FREE ENERGY PREDICTED BY IDOCK:   -2.03 KCAL/MOL
REMARK 923 INTER-LIGAND FREE ENERGY PREDICTED BY IDOCK:   -2.10 KCAL/MOL
REMARK 924 INTRA-LIGAND FREE ENERGY PREDICTED BY IDOCK:    0.07 KCAL/MOL
REMARK 927      BINDING AFFINITY PREDICTED BY RF-SCORE:    0.00 PKD
ROOT
HETATM    1  C   UNL     1      -5.821  14.858  70.765  1.00  0.00    -0.098 C  
HETATM    2  O   UNL     1      -5.255  14.720  69.473  1.00  0.00    -0.088 OA 
ENDROOT
BRANCH   2   3
HETATM    3  P   UNL     1      -6.111  13.881  68.227  1.00  0.00    -0.140 P  
HETATM    4  S   UNL     1      -7.835  13.958  69.275  1.00  0.00     0.370 S  
BRANCH   3   5
HETATM    5  N   UNL     1      -5.970  15.310  67.302  1.00  0.00    -0.300 NA 
HETATM    6  H   UNL     1      -5.110  15.453  66.773  1.00  0.00     0.000 HD 
BRANCH   5   7
HETATM    7  C   UNL     1      -7.006  16.345  67.221  1.00  0.00    -0.183 C  
HETATM    8  C   UNL     1      -6.513  17.534  66.393  1.00  0.00    -0.283 C  
HETATM    9  C   UNL     1      -8.319  15.830  66.622  1.00  0.00    -0.319 C  
ENDBRANCH   5   7
ENDBRANCH   3   5
BRANCH   3  10
HETATM   10  O   UNL     1      -6.966  13.040  66.980  1.00  0.00    -0.009 OA 
BRANCH  10  11
HETATM   11  C   UNL     1      -7.300  11.711  67.106  1.00  0.00    -0.143 A  
HETATM   12  C   UNL     1      -6.398  10.734  67.525  1.00  0.00    -0.057 A  
HETATM   13  C   UNL     1      -6.730   9.377  67.472  1.00  0.00    -0.068 A  
HETATM   14  C   UNL     1      -8.009   8.994  67.084  1.00  0.00    -0.102 A  
HETATM   15  C   UNL     1      -8.952   9.955  66.747  1.00  0.00    -0.155 A  
HETATM   16 CL   UNL     1      -8.416   7.325  67.034  1.00  0.00    -0.117 Cl 
HETATM   17  C   UNL     1      -8.595  11.312  66.744  1.00  0.00    -0.159 A  
HETATM   18 CL   UNL     1      -9.803  12.466  66.312  1.00  0.00    -0.250 Cl 
ENDBRANCH  10  11
ENDBRANCH   3  10
ENDBRANCH   2   3
TORSDOF 5
ENDMDL
MODEL      271
REMARK 921   NORMALIZED FREE ENERGY PREDICTED BY IDOCK:   -1.20 KCAL/MOL
REMARK 922        TOTAL FREE ENERGY PREDICTED BY IDOCK:   -1.97 KCAL/MOL
REMARK 923 INTER-LIGAND FREE ENERGY PREDICTED BY IDOCK:   -2.11 KCAL/MOL
REMARK 924 INTRA-LIGAND FREE ENERGY PREDICTED BY IDOCK:    0.14 KCAL/MOL
REMARK 927      BINDING AFFINITY PREDICTED BY RF-SCORE:    0.00 PKD
ROOT
HETATM    1  C   UNL     1     -10.363   5.508  66.811  1.00  0.00    -0.269 C  
HETATM    2  O   UNL     1     -10.565   6.685  67.573  1.00  0.00    -0.207 OA 
ENDROOT
BRANCH   2   3
HETATM    3  P   UNL     1      -9.305   7.301  68.585  1.00  0.00    -0.137 P  
HETATM    4  S   UNL     1      -7.885   6.400  67.468  1.00  0.00    -0.106 S  
BRANCH   3   5
HETATM    5  N   UNL     1      -9.642   8.832  67.905  1.00  0.00    -0.142 NA 
HETATM    6  H   UNL     1     -10.525   9.279  68.152  1.00  0.00     0.000 HD 
BRANCH   5   7
HETATM    7  C   UNL     1      -8.743   9.544  66.992  1.00  0.00    -0.128 C  
HETATM    8  C   UNL     1      -9.547  10.342  65.962  1.00  0.00    -0.251 C  
HETATM    9  C   UNL     1      -7.781  10.490  67.717  1.00  0.00    -0.093 C  
ENDBRANCH   5   7
ENDBRANCH   3   5
BRANCH   3  10
HETATM   10  O   UNL     1      -8.045   7.917  69.598  1.00  0.00    -0.113 OA 
BRANCH  10  11
HETATM   11  C   UNL     1      -7.447   7.135  70.559  1.00  0.00    -0.087 A  
HETATM   12  C   UNL     1      -6.287   6.396  70.328  1.00  0.00    -0.039 A  
HETATM   13  C   UNL     1      -5.814   5.483  71.276  1.00  0.00    -0.024 A  
HETATM   14  C   UNL     1      -6.452   5.372  72.505  1.00  0.00    -0.056 A  
HETATM   15  C   UNL     1      -7.557   6.162  72.792  1.00  0.00    -0.101 A  
HETATM   16 CL   UNL     1      -5.858   4.258  73.671  1.00  0.00    -0.008 Cl 
HETATM   17  C   UNL     1      -8.063   7.033  71.814  1.00  0.00    -0.099 A  
HETATM   18 CL   UNL     1      -9.442   7.989  72.218  1.00  0.00    -0.246 Cl 
ENDBRANCH  10  11
ENDBRANCH   3  10
ENDBRANCH   2   3
TORSDOF 5
ENDMDL
MODEL      272
REMARK 921   NORMALIZED FREE ENERGY PREDICTED BY IDOCK:   -1.20 KCAL/MOL
REMARK 922        TOTAL FREE ENERGY PREDICTED BY IDOCK:   -1.97 KCAL/MOL
REMARK 923 INTER-LIGAND FREE ENERGY PREDICTED BY IDOCK:   -1.64 KCAL/MOL
REMARK 924 INTRA-LIGAND FREE ENERGY PREDICTED BY IDOCK:   -0.33 KCAL/MOL
REMARK 927      BINDING AFFINITY PREDICTED BY RF-SCORE:    0.00 PKD
ROOT
HETATM    1  C   UNL     1     -10.882   5.784  66.896  1.00  0.00    -0.254 C  
HETATM    2  O   UNL     1     -10.655   6.640  68.001  1.00  0.00    -0.196 OA 
ENDROOT
BRANCH   2   3
HETATM    3  P   UNL     1      -9.260   6.430  69.000  1.00  0.00    -0.126 P  
HETATM    4  S   UNL     1      -8.245   5.539  67.500  1.00  0.00    -0.100 S  
BRANCH   3   5
HETATM    5  N   UNL     1      -9.039   8.120  68.879  1.00  0.00    -0.147 NA 
HETATM    6  H   UNL     1      -9.682   8.722  69.393  1.00  0.00     0.000 HD 
BRANCH   5   7
HETATM    7  C   UNL     1      -7.985   8.759  68.085  1.00  0.00    -0.106 C  
HETATM    8  C   UNL     1      -8.574   9.857  67.196  1.00  0.00    -0.125 C  
HETATM    9  C   UNL     1      -6.869   9.358  68.947  1.00  0.00    -0.055 C  
ENDBRANCH   5   7
ENDBRANCH   3   5
BRANCH   3  10
HETATM   10  O   UNL     1      -7.864   6.220  70.001  1.00  0.00    -0.102 OA 
BRANCH  10  11
HETATM   11  C   UNL     1      -7.708   5.106  70.793  1.00  0.00    -0.080 A  
HETATM   12  C   UNL     1      -8.621   4.052  70.817  1.00  0.00    -0.106 A  
HETATM   13  C   UNL     1      -8.512   3.026  71.761  1.00  0.00    -0.085 A  
HETATM   14  C   UNL     1      -7.428   3.000  72.630  1.00  0.00    -0.049 A  
HETATM   15  C   UNL     1      -6.458   3.991  72.565  1.00  0.00    -0.021 A  
HETATM   16 CL   UNL     1      -7.292   1.729  73.779  1.00  0.00    -0.028 Cl 
HETATM   17  C   UNL     1      -6.604   5.051  71.657  1.00  0.00    -0.032 A  
HETATM   18 CL   UNL     1      -5.374   6.261  71.619  1.00  0.00    -0.025 Cl 
ENDBRANCH  10  11
ENDBRANCH   3  10
ENDBRANCH   2   3
TORSDOF 5
ENDMDL
MODEL      273
REMARK 921   NORMALIZED FREE ENERGY PREDICTED BY IDOCK:   -1.18 KCAL/MOL
REMARK 922        TOTAL FREE ENERGY PREDICTED BY IDOCK:   -1.95 KCAL/MOL
REMARK 923 INTER-LIGAND FREE ENERGY PREDICTED BY IDOCK:   -2.32 KCAL/MOL
REMARK 924 INTRA-LIGAND FREE ENERGY PREDICTED BY IDOCK:    0.37 KCAL/MOL
REMARK 927      BINDING AFFINITY PREDICTED BY RF-SCORE:    0.00 PKD
ROOT
HETATM    1  C   UNL     1     -11.062   4.535  73.348  1.00  0.00    -0.322 C  
HETATM    2  O   UNL     1     -10.827   5.030  72.042  1.00  0.00    -0.179 OA 
ENDROOT
BRANCH   2   3
HETATM    3  P   UNL     1      -9.216   5.145  71.426  1.00  0.00    -0.152 P  
HETATM    4  S   UNL     1      -9.587   3.741  70.024  1.00  0.00    -0.151 S  
BRANCH   3   5
HETATM    5  N   UNL     1      -9.668   6.670  70.802  1.00  0.00    -0.179 NA 
HETATM    6  H   UNL     1      -9.553   6.829  69.801  1.00  0.00     0.000 HD 
BRANCH   5   7
HETATM    7  C   UNL     1     -10.209   7.765  71.613  1.00  0.00    -0.186 C  
HETATM    8  C   UNL     1      -9.120   8.358  72.511  1.00  0.00    -0.326 C  
HETATM    9  C   UNL     1     -10.826   8.885  70.770  1.00  0.00    -0.294 C  
ENDBRANCH   5   7
ENDBRANCH   3   5
BRANCH   3  10
HETATM   10  O   UNL     1      -7.603   5.261  70.810  1.00  0.00    -0.079 OA 
BRANCH  10  11
HETATM   11  C   UNL     1      -7.322   5.953  69.654  1.00  0.00    -0.075 A  
HETATM   12  C   UNL     1      -7.905   5.653  68.423  1.00  0.00    -0.092 A  
HETATM   13  C   UNL     1      -7.462   6.266  67.248  1.00  0.00    -0.084 A  
HETATM   14  C   UNL     1      -6.491   7.258  67.311  1.00  0.00    -0.059 A  
HETATM   15  C   UNL     1      -5.959   7.637  68.536  1.00  0.00    -0.031 A  
HETATM   16 CL   UNL     1      -5.960   8.018  65.864  1.00  0.00    -0.038 Cl 
HETATM   17  C   UNL     1      -6.363   6.975  69.705  1.00  0.00    -0.039 A  
HETATM   18 CL   UNL     1      -5.669   7.480  71.202  1.00  0.00    -0.035 Cl 
ENDBRANCH  10  11
ENDBRANCH   3  10
ENDBRANCH   2   3
TORSDOF 5
ENDMDL
MODEL      274
REMARK 921   NORMALIZED FREE ENERGY PREDICTED BY IDOCK:   -1.04 KCAL/MOL
REMARK 922        TOTAL FREE ENERGY PREDICTED BY IDOCK:   -1.77 KCAL/MOL
REMARK 923 INTER-LIGAND FREE ENERGY PREDICTED BY IDOCK:   -2.03 KCAL/MOL
REMARK 924 INTRA-LIGAND FREE ENERGY PREDICTED BY IDOCK:    0.26 KCAL/MOL
REMARK 927      BINDING AFFINITY PREDICTED BY RF-SCORE:    0.00 PKD
ROOT
HETATM    1  C   UNL     1      -9.399   3.740  65.714  1.00  0.00    -0.164 C  
HETATM    2  O   UNL     1      -8.249   3.848  66.534  1.00  0.00    -0.100 OA 
ENDROOT
BRANCH   2   3
HETATM    3  P   UNL     1      -8.340   3.484  68.222  1.00  0.00    -0.088 P  
HETATM    4  S   UNL     1      -7.877   1.547  67.891  1.00  0.00    -0.058 S  
BRANCH   3   5
HETATM    5  N   UNL     1      -6.889   4.370  68.392  1.00  0.00    -0.050 NA 
HETATM    6  H   UNL     1      -6.097   3.907  68.837  1.00  0.00     0.000 HD 
BRANCH   5   7
HETATM    7  C   UNL     1      -6.709   5.752  67.938  1.00  0.00    -0.058 C  
HETATM    8  C   UNL     1      -7.973   6.574  68.205  1.00  0.00    -0.110 C  
HETATM    9  C   UNL     1      -5.513   6.447  68.597  1.00  0.00    -0.011 C  
ENDBRANCH   5   7
ENDBRANCH   3   5
BRANCH   3  10
HETATM   10  O   UNL     1      -8.432   3.121  69.911  1.00  0.00    -0.050 OA 
BRANCH  10  11
HETATM   11  C   UNL     1      -8.973   4.011  70.810  1.00  0.00    -0.093 A  
HETATM   12  C   UNL     1      -9.363   5.304  70.464  1.00  0.00    -0.205 A  
HETATM   13  C   UNL     1      -9.743   6.228  71.442  1.00  0.00    -0.191 A  
HETATM   14  C   UNL     1      -9.826   5.831  72.771  1.00  0.00    -0.160 A  
HETATM   15  C   UNL     1      -9.528   4.523  73.128  1.00  0.00    -0.138 A  
HETATM   16 CL   UNL     1     -10.308   6.967  73.967  1.00  0.00    -0.384 Cl 
HETATM   17  C   UNL     1      -9.087   3.617  72.151  1.00  0.00    -0.107 A  
HETATM   18 CL   UNL     1      -8.724   2.004  72.648  1.00  0.00    -0.063 Cl 
ENDBRANCH  10  11
ENDBRANCH   3  10
ENDBRANCH   2   3
TORSDOF 5
ENDMDL
MODEL      275
REMARK 921   NORMALIZED FREE ENERGY PREDICTED BY IDOCK:   -1.02 KCAL/MOL
REMARK 922        TOTAL FREE ENERGY PREDICTED BY IDOCK:   -1.74 KCAL/MOL
REMARK 923 INTER-LIGAND FREE ENERGY PREDICTED BY IDOCK:   -3.35 KCAL/MOL
REMARK 924 INTRA-LIGAND FREE ENERGY PREDICTED BY IDOCK:    1.61 KCAL/MOL
REMARK 927      BINDING AFFINITY PREDICTED BY RF-SCORE:    0.00 PKD
ROOT
HETATM    1  C   UNL     1      -7.589   6.493  65.513  1.00  0.00    -0.088 C  
HETATM    2  O   UNL     1      -8.765   7.258  65.709  1.00  0.00    -0.154 OA 
ENDROOT
BRANCH   2   3
HETATM    3  P   UNL     1      -8.871   8.382  67.019  1.00  0.00    -0.141 P  
HETATM    4  S   UNL     1      -6.861   8.477  67.179  1.00  0.00    -0.068 S  
BRANCH   3   5
HETATM    5  N   UNL     1      -9.380   9.532  65.863  1.00  0.00    -0.206 NA 
HETATM    6  H   UNL     1     -10.369   9.780  65.841  1.00  0.00     0.000 HD 
BRANCH   5   7
HETATM    7  C   UNL     1      -8.487  10.185  64.901  1.00  0.00    -0.172 C  
HETATM    8  C   UNL     1      -7.060  10.247  65.450  1.00  0.00    -0.139 C  
HETATM    9  C   UNL     1      -8.468   9.490  63.536  1.00  0.00    -0.197 C  
ENDBRANCH   5   7
ENDBRANCH   3   5
BRANCH   3  10
HETATM   10  O   UNL     1      -8.978   9.505  68.330  1.00  0.00    -0.127 OA 
BRANCH  10  11
HETATM   11  C   UNL     1      -9.719  10.660  68.229  1.00  0.00    -0.161 A  
HETATM   12  C   UNL     1     -11.098  10.667  68.020  1.00  0.00    -0.361 A  
HETATM   13  C   UNL     1     -11.780  11.858  67.750  1.00  0.00    -0.362 A  
HETATM   14  C   UNL     1     -11.096  13.067  67.782  1.00  0.00    -0.262 A  
HETATM   15  C   UNL     1      -9.739  13.093  68.076  1.00  0.00    -0.224 A  
HETATM   16 CL   UNL     1     -11.942  14.529  67.464  1.00  0.00    -0.399 Cl 
HETATM   17  C   UNL     1      -9.048  11.890  68.285  1.00  0.00    -0.183 A  
HETATM   18 CL   UNL     1      -7.362  11.977  68.643  1.00  0.00    -0.108 Cl 
ENDBRANCH  10  11
ENDBRANCH   3  10
ENDBRANCH   2   3
TORSDOF 5
ENDMDL
MODEL      276
REMARK 921   NORMALIZED FREE ENERGY PREDICTED BY IDOCK:   -0.39 KCAL/MOL
REMARK 922        TOTAL FREE ENERGY PREDICTED BY IDOCK:   -0.92 KCAL/MOL
REMARK 923 INTER-LIGAND FREE ENERGY PREDICTED BY IDOCK:   -2.00 KCAL/MOL
REMARK 924 INTRA-LIGAND FREE ENERGY PREDICTED BY IDOCK:    1.07 KCAL/MOL
REMARK 927      BINDING AFFINITY PREDICTED BY RF-SCORE:    0.00 PKD
ROOT
HETATM    1  C   UNL     1      -5.916   3.802  72.573  1.00  0.00    -0.009 C  
HETATM    2  O   UNL     1      -6.513   3.424  71.345  1.00  0.00    -0.018 OA 
ENDROOT
BRANCH   2   3
HETATM    3  P   UNL     1      -7.683   4.448  70.588  1.00  0.00    -0.053 P  
HETATM    4  S   UNL     1      -8.588   4.822  72.354  1.00  0.00    -0.120 S  
BRANCH   3   5
HETATM    5  N   UNL     1      -6.416   5.575  70.376  1.00  0.00    -0.030 NA 
HETATM    6  H   UNL     1      -5.496   5.215  70.125  1.00  0.00     0.000 HD 
BRANCH   5   7
HETATM    7  C   UNL     1      -6.568   7.025  70.531  1.00  0.00    -0.052 C  
HETATM    8  C   UNL     1      -6.705   7.700  69.164  1.00  0.00    -0.048 C  
HETATM    9  C   UNL     1      -7.768   7.410  71.402  1.00  0.00    -0.086 C  
ENDBRANCH   5   7
ENDBRANCH   3   5
BRANCH   3  10
HETATM   10  O   UNL     1      -8.854   5.472  69.830  1.00  0.00    -0.123 OA 
BRANCH  10  11
HETATM   11  C   UNL     1      -9.446   5.128  68.637  1.00  0.00    -0.133 A  
HETATM   12  C   UNL     1      -9.214   3.913  67.992  1.00  0.00    -0.212 A  
HETATM   13  C   UNL     1      -9.698   3.678  66.702  1.00  0.00    -0.098 A  
HETATM   14  C   UNL     1     -10.501   4.628  66.083  1.00  0.00    -0.241 A  
HETATM   15  C   UNL     1     -10.819   5.808  66.741  1.00  0.00    -0.327 A  
HETATM   16 CL   UNL     1     -11.106   4.328  64.502  1.00  0.00    -0.099 Cl 
HETATM   17  C   UNL     1     -10.280   6.065  68.011  1.00  0.00    -0.181 A  
HETATM   18 CL   UNL     1     -10.702   7.549  68.785  1.00  0.00    -0.168 Cl 
ENDBRANCH  10  11
ENDBRANCH   3  10
ENDBRANCH   2   3
TORSDOF 5
ENDMDL
MODEL      277
REMARK 921   NORMALIZED FREE ENERGY PREDICTED BY IDOCK:    1.03 KCAL/MOL
REMARK 922        TOTAL FREE ENERGY PREDICTED BY IDOCK:    0.91 KCAL/MOL
REMARK 923 INTER-LIGAND FREE ENERGY PREDICTED BY IDOCK:    1.48 KCAL/MOL
REMARK 924 INTRA-LIGAND FREE ENERGY PREDICTED BY IDOCK:   -0.57 KCAL/MOL
REMARK 927      BINDING AFFINITY PREDICTED BY RF-SCORE:    0.00 PKD
ROOT
HETATM    1  C   UNL     1     -11.984   5.273  65.154  1.00  0.00     3.029 C  
HETATM    2  O   UNL     1     -11.215   5.071  66.326  1.00  0.00     0.051 OA 
ENDROOT
BRANCH   2   3
HETATM    3  P   UNL     1      -9.524   4.723  66.215  1.00  0.00    -0.197 P  
HETATM    4  S   UNL     1      -9.800   3.615  64.551  1.00  0.00    -0.186 S  
BRANCH   3   5
HETATM    5  N   UNL     1      -9.318   6.356  65.755  1.00  0.00    -0.377 NA 
HETATM    6  H   UNL     1      -9.227   6.562  64.760  1.00  0.00     0.000 HD 
BRANCH   5   7
HETATM    7  C   UNL     1      -9.264   7.478  66.697  1.00  0.00    -0.162 C  
HETATM    8  C   UNL     1     -10.536   8.324  66.597  1.00  0.00    -0.217 C  
HETATM    9  C   UNL     1      -9.075   7.029  68.150  1.00  0.00    -0.128 C  
ENDBRANCH   5   7
ENDBRANCH   3   5
BRANCH   3  10
HETATM   10  O   UNL     1      -7.833   4.376  66.106  1.00  0.00    -0.093 OA 
BRANCH  10  11
HETATM   11  C   UNL     1      -7.164   3.728  67.119  1.00  0.00    -0.064 A  
HETATM   12  C   UNL     1      -7.472   2.432  67.532  1.00  0.00    -0.056 A  
HETATM   13  C   UNL     1      -6.886   1.882  68.675  1.00  0.00    -0.036 A  
HETATM   14  C   UNL     1      -5.913   2.596  69.364  1.00  0.00    -0.024 A  
HETATM   15  C   UNL     1      -5.525   3.853  68.920  1.00  0.00    -0.013 A  
HETATM   16 CL   UNL     1      -5.185   1.908  70.761  1.00  0.00    -0.004 Cl 
HETATM   17  C   UNL     1      -6.161   4.426  67.807  1.00  0.00    -0.031 A  
HETATM   18 CL   UNL     1      -5.647   5.993  67.299  1.00  0.00    -0.012 Cl 
ENDBRANCH  10  11
ENDBRANCH   3  10
ENDBRANCH   2   3
TORSDOF 5
ENDMDL
MODEL      278
REMARK 921   NORMALIZED FREE ENERGY PREDICTED BY IDOCK:    6.17 KCAL/MOL
REMARK 922        TOTAL FREE ENERGY PREDICTED BY IDOCK:    7.55 KCAL/MOL
REMARK 923 INTER-LIGAND FREE ENERGY PREDICTED BY IDOCK:    0.84 KCAL/MOL
REMARK 924 INTRA-LIGAND FREE ENERGY PREDICTED BY IDOCK:    6.71 KCAL/MOL
REMARK 927      BINDING AFFINITY PREDICTED BY RF-SCORE:    0.00 PKD
ROOT
HETATM    1  C   UNL     1     -11.375  13.088  64.500  1.00  0.00    -0.339 C  
HETATM    2  O   UNL     1     -10.683  12.861  65.715  1.00  0.00    -0.267 OA 
ENDROOT
BRANCH   2   3
HETATM    3  P   UNL     1     -10.421  14.156  66.830  1.00  0.00    -0.283 P  
HETATM    4  S   UNL     1      -8.445  14.188  66.421  1.00  0.00     0.681 S  
BRANCH   3   5
HETATM    5  N   UNL     1     -11.227  15.158  65.705  1.00  0.00    -0.324 NA 
HETATM    6  H   UNL     1     -10.686  15.892  65.247  1.00  0.00     0.000 HD 
BRANCH   5   7
HETATM    7  C   UNL     1     -12.645  15.030  65.354  1.00  0.00     0.302 C  
HETATM    8  C   UNL     1     -12.804  14.285  64.027  1.00  0.00     0.476 C  
HETATM    9  C   UNL     1     -13.464  14.313  66.432  1.00  0.00     2.408 C  
ENDBRANCH   5   7
ENDBRANCH   3   5
BRANCH   3  10
HETATM   10  O   UNL     1     -10.160  15.452  67.946  1.00  0.00    -0.224 OA 
BRANCH  10  11
HETATM   11  C   UNL     1      -8.965  16.133  67.991  1.00  0.00    -0.185 A  
HETATM   12  C   UNL     1      -7.967  15.862  68.927  1.00  0.00    -0.204 A  
HETATM   13  C   UNL     1      -6.847  16.691  69.046  1.00  0.00    -0.207 A  
HETATM   14  C   UNL     1      -6.674  17.748  68.160  1.00  0.00    -0.204 A  
HETATM   15  C   UNL     1      -7.610  17.983  67.163  1.00  0.00    -0.226 A  
HETATM   16 CL   UNL     1      -5.288  18.755  68.302  1.00  0.00    -0.179 Cl 
HETATM   17  C   UNL     1      -8.763  17.185  67.087  1.00  0.00    -0.212 A  
HETATM   18 CL   UNL     1      -9.899  17.522  65.832  1.00  0.00    -0.175 Cl 
ENDBRANCH  10  11
ENDBRANCH   3  10
ENDBRANCH   2   3
TORSDOF 5
ENDMDL
MODEL      279
REMARK 921   NORMALIZED FREE ENERGY PREDICTED BY IDOCK:   10.02 KCAL/MOL
REMARK 922        TOTAL FREE ENERGY PREDICTED BY IDOCK:   12.52 KCAL/MOL
REMARK 923 INTER-LIGAND FREE ENERGY PREDICTED BY IDOCK:    9.05 KCAL/MOL
REMARK 924 INTRA-LIGAND FREE ENERGY PREDICTED BY IDOCK:    3.47 KCAL/MOL
REMARK 927      BINDING AFFINITY PREDICTED BY RF-SCORE:    0.00 PKD
ROOT
HETATM    1  C   UNL     1      -7.248  14.456  73.263  1.00  0.00     4.637 C  
HETATM    2  O   UNL     1      -6.351  15.282  72.543  1.00  0.00     1.401 OA 
ENDROOT
BRANCH   2   3
HETATM    3  P   UNL     1      -5.759  14.791  70.994  1.00  0.00     0.016 P  
HETATM    4  S   UNL     1      -6.404  12.900  71.280  1.00  0.00     1.976 S  
BRANCH   3   5
HETATM    5  N   UNL     1      -7.037  15.707  70.324  1.00  0.00     0.245 NA 
HETATM    6  H   UNL     1      -7.122  16.683  70.606  1.00  0.00     0.000 HD 
BRANCH   5   7
HETATM    7  C   UNL     1      -8.017  15.180  69.370  1.00  0.00    -0.205 C  
HETATM    8  C   UNL     1      -9.339  14.868  70.076  1.00  0.00     0.416 C  
HETATM    9  C   UNL     1      -8.287  16.135  68.202  1.00  0.00    -0.166 C  
ENDBRANCH   5   7
ENDBRANCH   3   5
BRANCH   3  10
HETATM   10  O   UNL     1      -5.167  14.301  69.444  1.00  0.00    -0.086 OA 
BRANCH  10  11
HETATM   11  C   UNL     1      -5.614  13.152  68.834  1.00  0.00    -0.073 A  
HETATM   12  C   UNL     1      -5.486  11.885  69.403  1.00  0.00    -0.064 A  
HETATM   13  C   UNL     1      -5.795  10.733  68.674  1.00  0.00    -0.039 A  
HETATM   14  C   UNL     1      -6.326  10.847  67.395  1.00  0.00    -0.064 A  
HETATM   15  C   UNL     1      -6.545  12.101  66.841  1.00  0.00    -0.006 A  
HETATM   16 CL   UNL     1      -6.717   9.428  66.509  1.00  0.00    -0.071 Cl 
HETATM   17  C   UNL     1      -6.176  13.253  67.553  1.00  0.00    -0.105 A  
HETATM   18 CL   UNL     1      -6.465  14.787  66.817  1.00  0.00     1.237 Cl 
ENDBRANCH  10  11
ENDBRANCH   3  10
ENDBRANCH   2   3
TORSDOF 5
ENDMDL
MODEL      280
REMARK 921   NORMALIZED FREE ENERGY PREDICTED BY IDOCK:   12.07 KCAL/MOL
REMARK 922        TOTAL FREE ENERGY PREDICTED BY IDOCK:   15.18 KCAL/MOL
REMARK 923 INTER-LIGAND FREE ENERGY PREDICTED BY IDOCK:   14.51 KCAL/MOL
REMARK 924 INTRA-LIGAND FREE ENERGY PREDICTED BY IDOCK:    0.67 KCAL/MOL
REMARK 927      BINDING AFFINITY PREDICTED BY RF-SCORE:    0.00 PKD
ROOT
HETATM    1  C   UNL     1     -10.779   8.011  66.566  1.00  0.00     0.420 C  
HETATM    2  O   UNL     1     -10.435   8.485  67.856  1.00  0.00    -0.224 OA 
ENDROOT
BRANCH   2   3
HETATM    3  P   UNL     1      -9.423   9.875  68.038  1.00  0.00    -0.135 P  
HETATM    4  S   UNL     1     -10.610  10.973  66.829  1.00  0.00    -0.263 S  
BRANCH   3   5
HETATM    5  N   UNL     1     -10.022   9.982  69.634  1.00  0.00    -0.225 NA 
HETATM    6  H   UNL     1     -10.054  10.903  70.070  1.00  0.00     0.000 HD 
BRANCH   5   7
HETATM    7  C   UNL     1     -10.493   8.835  70.416  1.00  0.00    -0.209 C  
HETATM    8  C   UNL     1      -9.413   8.375  71.399  1.00  0.00    -0.251 C  
HETATM    9  C   UNL     1     -11.782   9.129  71.191  1.00  0.00    -0.380 C  
ENDBRANCH   5   7
ENDBRANCH   3   5
BRANCH   3  10
HETATM   10  O   UNL     1      -8.409  11.265  68.220  1.00  0.00    -0.135 OA 
BRANCH  10  11
HETATM   11  C   UNL     1      -8.790  12.337  68.995  1.00  0.00     0.440 A  
HETATM   12  C   UNL     1      -9.103  12.227  70.349  1.00  0.00     5.616 A  
HETATM   13  C   UNL     1      -9.650  13.304  71.052  1.00  0.00     8.370 A  
HETATM   14  C   UNL     1      -9.801  14.533  70.422  1.00  0.00     1.221 A  
HETATM   15  C   UNL     1      -9.413  14.691  69.098  1.00  0.00    -0.070 A  
HETATM   16 CL   UNL     1     -10.462  15.859  71.295  1.00  0.00     0.561 Cl 
HETATM   17  C   UNL     1      -8.921  13.590  68.380  1.00  0.00    -0.146 A  
HETATM   18 CL   UNL     1      -8.458  13.837  66.736  1.00  0.00    -0.079 Cl 
ENDBRANCH  10  11
ENDBRANCH   3  10
ENDBRANCH   2   3
TORSDOF 5
ENDMDL
MODEL      281
REMARK 921   NORMALIZED FREE ENERGY PREDICTED BY IDOCK:   18.26 KCAL/MOL
REMARK 922        TOTAL FREE ENERGY PREDICTED BY IDOCK:   23.18 KCAL/MOL
REMARK 923 INTER-LIGAND FREE ENERGY PREDICTED BY IDOCK:   21.43 KCAL/MOL
REMARK 924 INTRA-LIGAND FREE ENERGY PREDICTED BY IDOCK:    1.74 KCAL/MOL
REMARK 927      BINDING AFFINITY PREDICTED BY RF-SCORE:    0.00 PKD
ROOT
HETATM    1  C   UNL     1     -12.471  14.232  65.929  1.00  0.00    -0.383 C  
HETATM    2  O   UNL     1     -11.475  13.943  66.894  1.00  0.00    -0.321 OA 
ENDROOT
BRANCH   2   3
HETATM    3  P   UNL     1     -10.775  15.210  67.838  1.00  0.00    -0.284 P  
HETATM    4  S   UNL     1     -12.234  16.498  67.302  1.00  0.00     2.417 S  
BRANCH   3   5
HETATM    5  N   UNL     1     -11.294  14.340  69.214  1.00  0.00    -0.270 NA 
HETATM    6  H   UNL     1     -11.464  14.863  70.072  1.00  0.00     0.000 HD 
BRANCH   5   7
HETATM    7  C   UNL     1     -11.511  12.890  69.239  1.00  0.00    -0.282 C  
HETATM    8  C   UNL     1     -12.989  12.564  69.009  1.00  0.00     1.858 C  
HETATM    9  C   UNL     1     -10.667  12.142  68.202  1.00  0.00    -0.238 C  
ENDBRANCH   5   7
ENDBRANCH   3   5
BRANCH   3  10
HETATM   10  O   UNL     1     -10.073  16.478  68.783  1.00  0.00    -0.228 OA 
BRANCH  10  11
HETATM   11  C   UNL     1      -9.036  16.237  69.655  1.00  0.00     0.204 A  
HETATM   12  C   UNL     1      -8.515  14.965  69.887  1.00  0.00     0.333 A  
HETATM   13  C   UNL     1      -7.583  14.743  70.906  1.00  0.00     1.676 A  
HETATM   14  C   UNL     1      -7.096  15.816  71.641  1.00  0.00     3.804 A  
HETATM   15  C   UNL     1      -7.534  17.105  71.368  1.00  0.00     6.896 A  
HETATM   16 CL   UNL     1      -5.940  15.540  72.883  1.00  0.00     1.265 Cl 
HETATM   17  C   UNL     1      -8.514  17.314  70.386  1.00  0.00     3.579 A  
HETATM   18 CL   UNL     1      -9.030  18.934  70.088  1.00  0.00     1.408 Cl 
ENDBRANCH  10  11
ENDBRANCH   3  10
ENDBRANCH   2   3
TORSDOF 5
ENDMDL
