MODEL       43
REMARK 921   NORMALIZED FREE ENERGY PREDICTED BY IDOCK:   -4.70 KCAL/MOL
REMARK 922        TOTAL FREE ENERGY PREDICTED BY IDOCK:  -10.40 KCAL/MOL
REMARK 923 INTER-LIGAND FREE ENERGY PREDICTED BY IDOCK:   -9.09 KCAL/MOL
REMARK 924 INTRA-LIGAND FREE ENERGY PREDICTED BY IDOCK:   -1.31 KCAL/MOL
REMARK 927      BINDING AFFINITY PREDICTED BY RF-SCORE:    0.00 PKD
ROOT
HETATM    1  C   UNL     1     -10.461   5.828  70.397  1.00  0.00    -0.342 C  
HETATM    2  C   UNL     1     -11.772   6.587  70.312  1.00  0.00    -0.430 C  
ENDROOT
BRANCH   2   3
HETATM    3  C   UNL     1     -12.199   7.117  71.680  1.00  0.00    -0.385 C  
BRANCH   3   4
HETATM    4  C   UNL     1     -13.609   7.689  71.607  1.00  0.00    -0.431 C  
BRANCH   4   5
HETATM    5  C   UNL     1     -13.675   9.119  72.137  1.00  0.00    -0.531 C  
BRANCH   5   6
HETATM    6  C   UNL     1     -12.626   9.970  71.427  1.00  0.00    -0.518 C  
BRANCH   6   7
HETATM    7  C   UNL     1     -12.846  11.464  71.675  1.00  0.00    -0.391 C  
BRANCH   7   8
HETATM    8  N   UNL     1     -12.599  12.295  70.482  1.00  0.00    -0.156 NA 
BRANCH   8   9
HETATM    9  C   UNL     1     -12.279  13.702  70.784  1.00  0.00    -0.347 C  
HETATM   10  C   UNL     1     -12.263  14.663  69.598  1.00  0.00    -0.325 C  
ENDBRANCH   8   9
BRANCH   8  11
HETATM   11  C   UNL     1     -11.593  11.696  69.587  1.00  0.00    -0.330 C  
BRANCH  11  12
HETATM   12  C   UNL     1     -12.025  11.599  68.116  1.00  0.00    -0.214 C  
BRANCH  12  13
HETATM   13  C   UNL     1     -10.832  11.477  67.160  1.00  0.00    -0.314 C  
BRANCH  13  14
HETATM   14  C   UNL     1     -11.040  12.273  65.865  1.00  0.00    -0.322 C  
HETATM   15  H   UNL     1     -12.550  12.796  64.714  1.00  0.00     0.000 HD 
HETATM   16  O   UNL     1     -12.421  12.303  65.516  1.00  0.00    -0.597 OA 
BRANCH  14  17
HETATM   17  C   UNL     1     -10.505  13.688  65.985  1.00  0.00    -0.300 A  
HETATM   18  C   UNL     1      -9.400  13.946  66.811  1.00  0.00    -0.286 A  
HETATM   19  C   UNL     1      -8.936  15.250  66.996  1.00  0.00    -0.254 A  
HETATM   20  C   UNL     1      -9.575  16.312  66.362  1.00  0.00    -0.291 A  
HETATM   21  C   UNL     1     -11.106  14.768  65.314  1.00  0.00    -0.374 A  
HETATM   22  C   UNL     1     -10.641  16.073  65.499  1.00  0.00    -0.415 A  
BRANCH  20  23
HETATM   23  N   UNL     1      -9.119  17.639  66.600  1.00  0.00    -0.257 N  
HETATM   24  H   UNL     1      -8.737  18.209  65.844  1.00  0.00     0.000 HD 
BRANCH  23  25
HETATM   25  S   UNL     1      -9.231  18.242  68.173  1.00  0.00    -0.310 S  
HETATM   26  C   UNL     1      -9.375  19.990  67.867  1.00  0.00    -0.327 C  
HETATM   27  O   UNL     1      -7.933  18.009  68.767  1.00  0.00    -0.299 OA 
HETATM   28  O   UNL     1     -10.441  17.765  68.806  1.00  0.00    -0.343 OA 
ENDBRANCH  23  25
ENDBRANCH  20  23
ENDBRANCH  14  17
ENDBRANCH  13  14
ENDBRANCH  12  13
ENDBRANCH  11  12
ENDBRANCH   8  11
ENDBRANCH   7   8
ENDBRANCH   6   7
ENDBRANCH   5   6
ENDBRANCH   4   5
ENDBRANCH   3   4
ENDBRANCH   2   3
TORSDOF 14
ENDMDL
