MODEL       99
REMARK 921   NORMALIZED FREE ENERGY PREDICTED BY IDOCK:   -4.60 KCAL/MOL
REMARK 922        TOTAL FREE ENERGY PREDICTED BY IDOCK:   -8.54 KCAL/MOL
REMARK 923 INTER-LIGAND FREE ENERGY PREDICTED BY IDOCK:   -8.10 KCAL/MOL
REMARK 924 INTRA-LIGAND FREE ENERGY PREDICTED BY IDOCK:   -0.44 KCAL/MOL
REMARK 927      BINDING AFFINITY PREDICTED BY RF-SCORE:    0.00 PKD
ROOT
HETATM    1  C   UNL     1     -11.532  15.649  64.440  1.00  0.00    -0.266 C  
HETATM    2  C   UNL     1     -10.357  15.560  65.408  1.00  0.00    -0.394 C  
ENDROOT
BRANCH   2   3
HETATM    3  N   UNL     1     -10.595  16.103  66.765  1.00  0.00    -0.302 NA 
BRANCH   3   4
HETATM    4  C   UNL     1     -10.796  15.032  67.760  1.00  0.00    -0.284 C  
BRANCH   4   5
HETATM    5  C   UNL     1     -10.291  15.332  69.185  1.00  0.00    -0.248 C  
BRANCH   5   6
HETATM    6  C   UNL     1     -11.154  16.335  69.958  1.00  0.00    -0.351 C  
BRANCH   6   7
HETATM    7  C   UNL     1     -11.999  15.627  70.996  1.00  0.00    -0.445 A  
HETATM    8  C   UNL     1     -12.710  14.465  70.664  1.00  0.00    -0.421 A  
HETATM    9  C   UNL     1     -13.437  13.778  71.639  1.00  0.00    -0.409 A  
HETATM   10  C   UNL     1     -12.035  16.089  72.320  1.00  0.00    -0.633 A  
HETATM   11  C   UNL     1     -13.461  14.244  72.952  1.00  0.00    -0.491 A  
HETATM   12  C   UNL     1     -12.763  15.401  73.293  1.00  0.00    -0.626 A  
ENDBRANCH   6   7
ENDBRANCH   5   6
ENDBRANCH   4   5
ENDBRANCH   3   4
BRANCH   3  13
HETATM   13  C   UNL     1      -9.477  16.987  67.159  1.00  0.00    -0.242 C  
BRANCH  13  14
HETATM   14  C   UNL     1      -9.834  18.469  67.282  1.00  0.00    -0.329 C  
BRANCH  14  15
HETATM   15  C   UNL     1      -8.929  19.373  66.439  1.00  0.00    -0.395 C  
BRANCH  15  16
HETATM   16  C   UNL     1      -7.842  19.928  67.324  1.00  0.00    -0.319 A  
HETATM   17  C   UNL     1      -5.652  20.730  68.867  1.00  0.00    -0.391 A  
HETATM   18  C   UNL     1      -6.597  19.851  69.400  1.00  0.00    -0.375 A  
HETATM   19  C   UNL     1      -6.900  20.826  66.802  1.00  0.00    -0.352 A  
HETATM   20  C   UNL     1      -5.808  21.220  67.575  1.00  0.00    -0.427 A  
HETATM   21  C   UNL     1      -7.691  19.457  68.634  1.00  0.00    -0.394 A  
ENDBRANCH  15  16
ENDBRANCH  14  15
ENDBRANCH  13  14
ENDBRANCH   3  13
ENDBRANCH   2   3
TORSDOF 9
ENDMDL
