MODEL       32
REMARK 921   NORMALIZED FREE ENERGY PREDICTED BY IDOCK:   -5.66 KCAL/MOL
REMARK 922        TOTAL FREE ENERGY PREDICTED BY IDOCK:  -14.25 KCAL/MOL
REMARK 923 INTER-LIGAND FREE ENERGY PREDICTED BY IDOCK:  -12.55 KCAL/MOL
REMARK 924 INTRA-LIGAND FREE ENERGY PREDICTED BY IDOCK:   -1.70 KCAL/MOL
REMARK 927      BINDING AFFINITY PREDICTED BY RF-SCORE:    0.00 PKD
ROOT
HETATM    1  N   UNK A   1     -11.577   4.364  64.741  1.00  0.00    -0.944 NA 
HETATM    2  H1  UNK A   1     -11.510   4.031  63.779  1.00  0.00     0.000 HD 
HETATM    3  H2  UNK A   1     -12.152   5.204  64.792  1.00  0.00     0.000 HD 
HETATM    4  C   UNK A   1     -10.256   4.590  65.386  1.00  0.00    -0.202 C  
HETATM    5  O   UNK A   1      -8.488   2.996  65.995  1.00  0.00    -0.102 OA 
HETATM    6  C   UNK A   1      -9.422   3.301  65.271  1.00  0.00    -0.127 C  
HETATM    7  O   UNK A   1      -9.860   2.531  64.242  1.00  0.00    -0.145 OA 
ENDROOT
BRANCH   4   8
HETATM    8  C   UNK A   1     -10.357   5.089  66.829  1.00  0.00    -0.290 C  
BRANCH   8   9
HETATM    9  C   UNK A   1     -10.961   6.485  66.989  1.00  0.00    -0.466 C  
BRANCH   9  10
HETATM   10  C   UNK A   1     -10.012   7.367  67.766  1.00  0.00    -0.167 C  
HETATM   11  N   UNK A   1     -10.519   8.611  68.079  1.00  0.00    -0.326 N  
HETATM   12  O   UNK A   1      -8.873   7.013  68.054  1.00  0.00    -0.125 OA 
HETATM   13  H   UNK A   1     -11.451   8.879  67.767  1.00  0.00     0.000 HD 
BRANCH  11  14
HETATM   14  C   UNK A   1      -9.705   9.549  68.865  1.00  0.00    -0.164 C  
BRANCH  14  15
HETATM   15  C   UNK A   1     -10.107   9.429  70.349  1.00  0.00    -0.255 C  
ATOM     16  H   GLY A   2     -12.088   9.237  69.784  1.00  0.00     0.000 HD 
ATOM     17  N   GLY A   2     -11.452   9.242  70.580  1.00  0.00    -0.272 N  
HETATM   18  O   UNK A   1      -9.298   9.513  71.259  1.00  0.00    -0.229 OA 
BRANCH  17  19
ATOM     19  CA  GLY A   2     -12.002   9.050  71.911  1.00  0.00    -0.375 C  
ATOM     20  C   GLY A   2     -13.463   9.442  72.055  1.00  0.00    -0.449 C  
ATOM     21  O   GLY A   2     -13.897  10.398  71.179  1.00  0.00     0.081 OA 
ATOM     22  OXT GLY A   2     -14.202   9.002  72.923  1.00  0.00    -0.528 OA 
ENDBRANCH  17  19
ENDBRANCH  14  15
BRANCH  14  23
HETATM   23  C   UNK A   1      -9.883  10.987  68.348  1.00  0.00    -0.182 C  
BRANCH  23  24
HETATM   24  S   UNK A   1      -8.446  11.714  67.500  1.00  0.00    -0.158 SA 
BRANCH  24  25
HETATM   25  S   UNK A   1      -9.340  12.986  66.163  1.00  0.00     0.003 SA 
BRANCH  25  26
HETATM   26  C   UNK A   1      -9.317  14.575  67.066  1.00  0.00    -0.238 C  
BRANCH  26  27
HETATM   27  C   UNK A   1     -10.698  15.198  67.340  1.00  0.00    -0.286 C  
BRANCH  27  28
HETATM   28  C   UNK A   1     -11.586  14.223  68.170  1.00  0.00    -0.332 C  
ATOM     29  H   GLY A   2     -10.848  14.976  69.973  1.00  0.00     0.000 HD 
ATOM     30  N   GLY A   2     -11.517  14.337  69.544  1.00  0.00    -0.274 N  
HETATM   31  O   UNK A   1     -12.407  13.470  67.649  1.00  0.00    -0.248 OA 
BRANCH  30  32
ATOM     32  CA  GLY A   2     -12.406  13.536  70.376  1.00  0.00    -0.327 C  
ATOM     33  OXT GLY A   2     -13.435  13.610  72.590  1.00  0.00    -0.550 OA 
ATOM     34  C   GLY A   2     -13.069  14.209  71.586  1.00  0.00    -0.351 C  
ATOM     35  O   GLY A   2     -13.422  15.493  71.385  1.00  0.00    -0.496 OA 
ENDBRANCH  30  32
ENDBRANCH  27  28
BRANCH  27  36
HETATM   36  N   UNK A   1     -10.669  16.625  67.727  1.00  0.00    -0.340 N  
HETATM   37  H   UNK A   1     -10.711  16.869  68.717  1.00  0.00     0.000 HD 
HETATM   38  O   UNK A   1     -10.396  17.437  65.602  1.00  0.00    -0.589 OA 
HETATM   39  C   UNK A   1     -10.589  17.635  66.797  1.00  0.00    -0.224 C  
BRANCH  39  40
HETATM   40  C   UNK A   1     -10.612  19.055  67.342  1.00  0.00    -0.559 C  
BRANCH  40  41
HETATM   41  C   UNK A   1      -9.577  19.397  68.431  1.00  0.00    -0.460 C  
BRANCH  41  42
HETATM   42  C   UNK A   1      -8.092  19.227  68.081  1.00  0.00    -0.314 C  
HETATM   43  N   UNK A   1      -7.197  19.689  69.175  1.00  0.00    -0.353 NA 
HETATM   44  C   UNK A   1      -7.758  20.047  66.849  1.00  0.00    -0.293 C  
HETATM   45  O   UNK A   1      -7.973  19.783  65.680  1.00  0.00    -0.386 OA 
HETATM   46  O   UNK A   1      -7.214  21.223  67.238  1.00  0.00    -0.508 OA 
HETATM   47  H2  UNK A   1      -7.422  19.228  70.056  1.00  0.00     0.000 HD 
HETATM   48  H1  UNK A   1      -6.210  19.576  68.943  1.00  0.00     0.000 HD 
ENDBRANCH  41  42
ENDBRANCH  40  41
ENDBRANCH  39  40
ENDBRANCH  27  36
ENDBRANCH  26  27
ENDBRANCH  25  26
ENDBRANCH  24  25
ENDBRANCH  23  24
ENDBRANCH  14  23
ENDBRANCH  11  14
ENDBRANCH   9  10
ENDBRANCH   8   9
ENDBRANCH   4   8
TORSDOF 17
ENDMDL
