MODEL       43
REMARK 921   NORMALIZED FREE ENERGY PREDICTED BY IDOCK:   -6.16 KCAL/MOL
REMARK 922        TOTAL FREE ENERGY PREDICTED BY IDOCK:   -9.85 KCAL/MOL
REMARK 923 INTER-LIGAND FREE ENERGY PREDICTED BY IDOCK:   -9.32 KCAL/MOL
REMARK 924 INTRA-LIGAND FREE ENERGY PREDICTED BY IDOCK:   -0.53 KCAL/MOL
REMARK 927      BINDING AFFINITY PREDICTED BY RF-SCORE:    0.00 PKD
ROOT
HETATM    1  C   UNL     1     -10.363  14.686  69.264  1.00  0.00    -0.173 C  
HETATM    2  S   UNL     1     -11.784  15.316  68.261  1.00  0.00    -0.229 SA 
HETATM    3  C   UNL     1     -11.325  14.356  66.743  1.00  0.00    -0.352 C  
HETATM    4  C   UNL     1     -10.433  13.194  67.254  1.00  0.00    -0.243 C  
HETATM    5  C   UNL     1     -12.597  13.937  65.998  1.00  0.00    -0.467 C  
HETATM    6  C   UNL     1     -10.556  15.314  65.809  1.00  0.00    -0.359 C  
HETATM    7  N   UNL     1      -9.669  13.730  68.383  1.00  0.00    -0.223 N  
HETATM    8  O   UNL     1      -7.720  14.495  67.348  1.00  0.00    -0.180 OA 
HETATM    9  C   UNL     1      -8.579  14.532  68.201  1.00  0.00    -0.169 C  
HETATM   10  C   UNL     1      -9.059  15.531  69.281  1.00  0.00    -0.266 C  
ENDROOT
BRANCH   4  11
HETATM   11  C   UNL     1     -11.214  11.932  67.686  1.00  0.00    -0.276 C  
HETATM   12  O   UNL     1     -11.295  10.915  67.006  1.00  0.00    -0.364 OA 
BRANCH  11  13
HETATM   13  O   UNL     1     -11.780  12.072  68.916  1.00  0.00    -0.285 OA 
BRANCH  13  14
HETATM   14  C   UNL     1     -11.305  11.190  69.935  1.00  0.00    -0.268 C  
BRANCH  14  15
HETATM   15  O   UNL     1     -12.010   9.947  69.929  1.00  0.00    -0.099 OA 
BRANCH  15  16
HETATM   16  C   UNL     1     -12.318   9.465  71.164  1.00  0.00    -0.308 C  
HETATM   17  O   UNL     1     -13.019  10.048  71.979  1.00  0.00    -0.419 OA 
BRANCH  16  18
HETATM   18  C   UNL     1     -11.675   8.094  71.393  1.00  0.00    -0.321 C  
HETATM   19  C   UNL     1     -10.620   8.208  72.506  1.00  0.00    -0.411 C  
HETATM   20  C   UNL     1     -10.992   7.618  70.104  1.00  0.00    -0.255 C  
HETATM   21  C   UNL     1     -12.750   7.089  71.828  1.00  0.00    -0.378 C  
ENDBRANCH  16  18
ENDBRANCH  15  16
ENDBRANCH  14  15
ENDBRANCH  13  14
ENDBRANCH  11  13
ENDBRANCH   4  11
BRANCH  10  22
HETATM   22  N   UNL     1      -9.170  16.953  68.880  1.00  0.00    -0.255 N  
HETATM   23  C   UNL     1      -8.063  17.766  68.777  1.00  0.00    -0.226 C  
HETATM   24  O   UNL     1      -6.916  17.342  68.920  1.00  0.00    -0.224 OA 
HETATM   25  H   UNL     1     -10.091  17.340  68.675  1.00  0.00     0.000 HD 
BRANCH  23  26
HETATM   26  C   UNL     1      -8.384  19.245  68.455  1.00  0.00    -0.366 C  
HETATM   27  N   UNL     1      -9.759  19.353  67.895  1.00  0.00    -0.333 NA 
HETATM   28  H2  UNL     1     -10.457  18.934  68.509  1.00  0.00     0.000 HD 
HETATM   29  H1  UNL     1      -9.970  20.328  67.682  1.00  0.00     0.000 HD 
BRANCH  26  30
HETATM   30  C   UNL     1      -7.337  19.854  67.540  1.00  0.00    -0.305 A  
HETATM   31  C   UNL     1      -7.302  19.483  66.186  1.00  0.00    -0.292 A  
HETATM   32  C   UNL     1      -6.344  20.018  65.323  1.00  0.00    -0.297 A  
HETATM   33  C   UNL     1      -5.412  20.937  65.799  1.00  0.00    -0.251 A  
HETATM   34  C   UNL     1      -5.448  21.335  67.133  1.00  0.00    -0.352 A  
HETATM   35  C   UNL     1      -6.409  20.804  67.996  1.00  0.00    -0.371 A  
ENDBRANCH  26  30
ENDBRANCH  23  26
ENDBRANCH  10  22
TORSDOF 9
ENDMDL
