MODEL      107
REMARK 921   NORMALIZED FREE ENERGY PREDICTED BY IDOCK:   -4.38 KCAL/MOL
REMARK 922        TOTAL FREE ENERGY PREDICTED BY IDOCK:   -5.69 KCAL/MOL
REMARK 923 INTER-LIGAND FREE ENERGY PREDICTED BY IDOCK:   -5.56 KCAL/MOL
REMARK 924 INTRA-LIGAND FREE ENERGY PREDICTED BY IDOCK:   -0.13 KCAL/MOL
REMARK 927      BINDING AFFINITY PREDICTED BY RF-SCORE:    0.00 PKD
ROOT
HETATM    1  C   UNL     1      -9.155  16.678  66.253  1.00  0.00    -0.333 C  
HETATM    2  C   UNL     1     -10.581  17.118  65.919  1.00  0.00    -0.215 C  
HETATM    3  C   UNL     1     -10.647  18.648  65.870  1.00  0.00    -0.365 C  
ENDROOT
BRANCH   2   4
HETATM    4  N   UNL     1     -10.980  16.512  64.641  1.00  0.00    -0.897 NA 
HETATM    5  H   UNL     1     -10.489  16.943  63.858  1.00  0.00     0.000 HD 
BRANCH   4   6
HETATM    6  C   UNL     1     -10.804  15.049  64.642  1.00  0.00    -0.269 C  
BRANCH   6   7
HETATM    7  C   UNL     1     -11.903  14.304  65.437  1.00  0.00    -0.363 C  
HETATM    8  H   UNL     1     -13.336  13.023  65.033  1.00  0.00     0.000 HD 
HETATM    9  O   UNL     1     -12.661  13.480  64.544  1.00  0.00    -0.635 OA 
BRANCH   7  10
HETATM   10  C   UNL     1     -11.348  13.444  66.564  1.00  0.00    -0.346 A  
HETATM   11  C   UNL     1     -10.060  13.701  67.066  1.00  0.00    -0.248 A  
HETATM   12  C   UNL     1      -9.533  12.900  68.082  1.00  0.00    -0.218 A  
HETATM   13  C   UNL     1     -10.261  11.847  68.621  1.00  0.00    -0.202 A  
HETATM   14  O   UNL     1      -8.281  13.114  68.581  1.00  0.00    -0.292 OA 
HETATM   15  H   UNL     1      -7.923  12.569  69.271  1.00  0.00     0.000 HD 
HETATM   16  C   UNL     1     -11.541  11.606  68.144  1.00  0.00    -0.319 A  
HETATM   17  O   UNL     1     -12.308  10.590  68.631  1.00  0.00    -0.785 OA 
HETATM   18  C   UNL     1     -12.089  12.397  67.138  1.00  0.00    -0.072 A  
HETATM   19  H   UNL     1     -13.185  10.425  68.305  1.00  0.00     0.000 HD 
ENDBRANCH   7  10
ENDBRANCH   6   7
ENDBRANCH   4   6
ENDBRANCH   2   4
TORSDOF 4
ENDMDL
