MODEL      271
REMARK 921   NORMALIZED FREE ENERGY PREDICTED BY IDOCK:    6.83 KCAL/MOL
REMARK 922        TOTAL FREE ENERGY PREDICTED BY IDOCK:    7.95 KCAL/MOL
REMARK 923 INTER-LIGAND FREE ENERGY PREDICTED BY IDOCK:   -1.26 KCAL/MOL
REMARK 924 INTRA-LIGAND FREE ENERGY PREDICTED BY IDOCK:    9.21 KCAL/MOL
REMARK 927      BINDING AFFINITY PREDICTED BY RF-SCORE:    0.00 PKD
ROOT
HETATM    1  C   UNL     1      -9.729  13.312  68.129  1.00  0.00    -0.227 C  
HETATM    2  C   UNL     1     -10.456  14.622  67.974  1.00  0.00    -0.236 A  
HETATM    3  C   UNL     1     -11.856  14.556  67.825  1.00  0.00    -0.390 A  
HETATM    4  C   UNL     1     -12.606  15.697  67.570  1.00  0.00     1.759 A  
HETATM    5  C   UNL     1     -11.964  16.922  67.431  1.00  0.00     1.618 A  
HETATM    6  C   UNL     1     -10.567  17.026  67.573  1.00  0.00    -0.310 A  
HETATM    7  C   UNL     1      -9.947  18.390  67.422  1.00  0.00    -0.347 C  
HETATM    8  C   UNL     1      -9.808  15.879  67.903  1.00  0.00    -0.218 A  
ENDROOT
BRANCH   8   9
HETATM    9  N   UNL     1      -8.410  16.034  68.122  1.00  0.00    -0.158 N  
HETATM   10  C   UNL     1      -7.599  15.027  68.624  1.00  0.00    -0.128 C  
HETATM   11  H   UNL     1      -7.982  16.932  67.897  1.00  0.00     0.000 HD 
HETATM   12  O   UNL     1      -7.985  13.903  68.937  1.00  0.00    -0.101 OA 
BRANCH  10  13
HETATM   13  C   UNL     1      -6.151  15.429  68.937  1.00  0.00    -0.098 C  
BRANCH  13  14
HETATM   14  N   UNL     1      -5.131  14.376  68.699  1.00  0.00    -0.090 NA 
HETATM   15  C   UNL     1      -5.222  13.357  69.782  1.00  0.00    -0.088 C  
HETATM   16  C   UNL     1      -6.442  12.396  69.710  1.00  0.00    -0.025 C  
HETATM   17  N   UNL     1      -6.664  11.758  68.396  1.00  0.00    -0.061 NA 
HETATM   18  C   UNL     1      -6.581  12.773  67.332  1.00  0.00    -0.136 C  
HETATM   19  C   UNL     1      -5.331  13.677  67.408  1.00  0.00     0.278 C  
BRANCH  17  20
HETATM   20  C   UNL     1      -5.761  10.626  68.150  1.00  0.00    -0.042 C  
BRANCH  20  21
HETATM   21  C   UNL     1      -5.361   9.913  69.450  1.00  0.00    -0.035 C  
BRANCH  21  22
HETATM   22  C   UNL     1      -6.545   9.324  70.235  1.00  0.00    -0.062 C  
HETATM   23  C   UNL     1      -7.794   8.994  69.375  1.00  0.00    -0.094 C  
HETATM   24  C   UNL     1      -9.018   8.617  70.211  1.00  0.00    -0.162 A  
HETATM   25  C   UNL     1      -7.450   7.950  68.315  1.00  0.00    -0.104 A  
HETATM   26  C   UNL     1      -7.052   6.653  68.682  1.00  0.00    -0.083 A  
HETATM   27  C   UNL     1     -10.304   8.904  69.714  1.00  0.00    -0.213 A  
HETATM   28  C   UNL     1     -11.442   8.623  70.473  1.00  0.00    -0.208 A  
HETATM   29  C   UNL     1      -6.613   5.745  67.718  1.00  0.00    -0.053 A  
HETATM   30  C   UNL     1     -11.303   8.045  71.728  1.00  0.00    -0.270 A  
HETATM   31  C   UNL     1      -6.576   6.127  66.384  1.00  0.00    -0.048 A  
HETATM   32  F   UNL     1      -6.126   5.264  65.464  1.00  0.00    -0.028 F  
HETATM   33  C   UNL     1      -6.987   7.395  65.992  1.00  0.00    -0.061 A  
HETATM   34  F   UNL     1     -12.393   7.790  72.463  1.00  0.00    -0.298 F  
HETATM   35  C   UNL     1     -10.050   7.732  72.233  1.00  0.00    -0.277 A  
HETATM   36  C   UNL     1      -8.913   8.011  71.476  1.00  0.00    -0.180 A  
HETATM   37  C   UNL     1      -7.429   8.305  66.953  1.00  0.00    -0.088 A  
ENDBRANCH  21  22
ENDBRANCH  20  21
ENDBRANCH  17  20
ENDBRANCH  13  14
ENDBRANCH  10  13
ENDBRANCH   8   9
TORSDOF 6
ENDMDL
