MODEL      114
REMARK 921   NORMALIZED FREE ENERGY PREDICTED BY IDOCK:   -5.49 KCAL/MOL
REMARK 922        TOTAL FREE ENERGY PREDICTED BY IDOCK:   -8.97 KCAL/MOL
REMARK 923 INTER-LIGAND FREE ENERGY PREDICTED BY IDOCK:   -8.21 KCAL/MOL
REMARK 924 INTRA-LIGAND FREE ENERGY PREDICTED BY IDOCK:   -0.75 KCAL/MOL
REMARK 927      BINDING AFFINITY PREDICTED BY RF-SCORE:    0.00 PKD
ROOT
HETATM    1  C   UNL     1      -9.117   9.716  65.713  1.00  0.00    -0.185 C  
HETATM    2  C   UNL     1      -9.730   8.970  66.905  1.00  0.00    -0.260 C  
HETATM    3  N   UNL     1     -10.158   9.740  64.663  1.00  0.00    -0.326 NA 
HETATM    4  H1  UNL     1      -9.750  10.235  63.871  1.00  0.00     0.000 HD 
HETATM    5  C   UNL     1      -8.926   9.115  68.176  1.00  0.00    -0.129 C  
HETATM    6  H2  UNL     1     -11.043  10.137  64.978  1.00  0.00     0.000 HD 
HETATM    7  C   UNL     1      -8.485  10.558  68.420  1.00  0.00    -0.128 C  
HETATM    8  C   UNL     1      -8.450  11.116  66.047  1.00  0.00    -0.138 C  
HETATM    9  O   UNL     1      -7.773  11.115  67.304  1.00  0.00    -0.118 OA 
ENDROOT
BRANCH   7  10
HETATM   10  C   UNL     1      -7.524  10.550  69.641  1.00  0.00    -0.141 C  
HETATM   11  N   UNL     1      -7.115  11.893  70.052  1.00  0.00    -0.228 NA 
HETATM   12  H1  UNL     1      -6.484  11.888  70.854  1.00  0.00     0.000 HD 
HETATM   13  H2  UNL     1      -7.928  12.483  70.231  1.00  0.00     0.000 HD 
ENDBRANCH   7  10
BRANCH   8  14
HETATM   14  O   UNL     1      -9.392  12.177  65.884  1.00  0.00    -0.217 OA 
BRANCH  14  15
HETATM   15  C   UNL     1      -9.831  12.974  67.013  1.00  0.00    -0.238 C  
HETATM   16  C   UNL     1     -11.352  13.140  66.740  1.00  0.00    -0.316 C  
HETATM   17  N   UNL     1     -12.050  11.842  66.804  1.00  0.00    -0.373 NA 
HETATM   18  C   UNL     1     -12.106  14.067  67.673  1.00  0.00    -0.344 C  
HETATM   19  H2  UNL     1     -11.877  11.366  67.690  1.00  0.00     0.000 HD 
HETATM   20  H1  UNL     1     -13.049  11.951  66.625  1.00  0.00     0.000 HD 
HETATM   21  C   UNL     1     -11.442  15.423  67.845  1.00  0.00    -0.299 C  
HETATM   22  N   UNL     1     -12.347  16.166  68.737  1.00  0.00    -0.107 NA 
HETATM   23  C   UNL     1      -9.981  15.205  68.351  1.00  0.00    -0.222 C  
HETATM   24  C   UNL     1      -9.169  14.379  67.266  1.00  0.00    -0.209 C  
HETATM   25  O   UNL     1      -7.816  14.199  67.723  1.00  0.00    -0.139 OA 
HETATM   26  H2  UNL     1     -12.551  15.688  69.615  1.00  0.00     0.000 HD 
HETATM   27  H1  UNL     1     -11.901  17.076  68.854  1.00  0.00     0.000 HD 
HETATM   28  H   UNL     1      -7.416  15.048  67.876  1.00  0.00     0.000 HD 
BRANCH  23  29
HETATM   29  O   UNL     1      -9.314  16.450  68.728  1.00  0.00    -0.226 OA 
BRANCH  29  30
HETATM   30  C   UNL     1      -8.379  16.897  67.705  1.00  0.00    -0.194 C  
HETATM   31  O   UNL     1      -9.069  17.432  66.569  1.00  0.00    -0.252 OA 
HETATM   32  C   UNL     1      -9.738  18.665  66.886  1.00  0.00    -0.314 C  
HETATM   33  C   UNL     1      -8.691  19.741  67.172  1.00  0.00    -0.323 C  
HETATM   34  H   UNL     1      -5.970  18.010  69.678  1.00  0.00     0.000 HD 
HETATM   35  O   UNL     1      -9.297  21.010  67.425  1.00  0.00    -0.539 OA 
HETATM   36  C   UNL     1      -7.837  19.312  68.390  1.00  0.00    -0.341 C  
HETATM   37  H1  UNL     1      -6.198  20.018  69.425  1.00  0.00     0.000 HD 
HETATM   38  H2  UNL     1      -7.125  21.249  68.724  1.00  0.00     0.000 HD 
HETATM   39  C   UNL     1      -7.293  17.888  68.200  1.00  0.00    -0.241 C  
HETATM   40  N   UNL     1      -6.761  20.301  68.622  1.00  0.00    -0.288 NA 
HETATM   41  H   UNL     1      -8.647  21.679  67.603  1.00  0.00     0.000 HD 
HETATM   42  O   UNL     1      -6.635  17.403  69.375  1.00  0.00    -0.244 OA 
BRANCH  32  43
HETATM   43  C   UNL     1     -10.660  19.006  65.715  1.00  0.00    -0.318 C  
HETATM   44  O   UNL     1     -10.808  17.842  64.889  1.00  0.00    -0.815 OA 
HETATM   45  H   UNL     1     -11.380  18.054  64.161  1.00  0.00     0.000 HD 
ENDBRANCH  32  43
ENDBRANCH  29  30
ENDBRANCH  23  29
ENDBRANCH  14  15
ENDBRANCH   8  14
TORSDOF 6
ENDMDL
