MODEL       43
REMARK 921   NORMALIZED FREE ENERGY PREDICTED BY IDOCK:   -6.19 KCAL/MOL
REMARK 922        TOTAL FREE ENERGY PREDICTED BY IDOCK:  -14.56 KCAL/MOL
REMARK 923 INTER-LIGAND FREE ENERGY PREDICTED BY IDOCK:  -11.51 KCAL/MOL
REMARK 924 INTRA-LIGAND FREE ENERGY PREDICTED BY IDOCK:   -3.05 KCAL/MOL
REMARK 927      BINDING AFFINITY PREDICTED BY RF-SCORE:    0.00 PKD
ROOT
HETATM    1  C   UNL     1      -8.407  18.317  66.624  1.00  0.00    -0.281 C  
HETATM    2  C   UNL     1      -9.644  18.694  67.220  1.00  0.00    -0.316 C  
HETATM    3  C   UNL     1      -8.565  18.582  68.263  1.00  0.00    -0.341 C  
HETATM    4  C   UNL     1      -6.751  18.480  67.354  1.00  0.00    -0.201 C  
HETATM    5  O   UNL     1      -5.369  18.638  67.692  1.00  0.00    -0.159 OA 
HETATM    6  C   UNL     1      -7.390  19.691  67.467  1.00  0.00    -0.284 C  
HETATM    7  C   UNL     1      -6.791  19.551  69.203  1.00  0.00    -0.381 C  
HETATM    8  C   UNL     1      -7.188  20.971  66.738  1.00  0.00    -0.188 C  
HETATM    9  H   UNL     1      -4.520  18.591  67.268  1.00  0.00     0.000 HD 
HETATM   10  C   UNL     1      -6.523  17.855  69.694  1.00  0.00    -0.127 C  
HETATM   11  C   UNL     1      -7.261  16.521  68.918  1.00  0.00    -0.208 C  
HETATM   12  C   UNL     1      -6.737  15.108  69.206  1.00  0.00    -0.146 A  
HETATM   13  C   UNL     1      -5.997  14.852  70.376  1.00  0.00    -0.150 A  
HETATM   14  C   UNL     1      -5.684  13.546  70.769  1.00  0.00    -0.189 A  
HETATM   15  C   UNL     1      -6.100  12.480  69.988  1.00  0.00    -0.117 A  
HETATM   16  C   UNL     1      -6.838  12.700  68.834  1.00  0.00    -0.097 A  
HETATM   17  O   UNL     1      -5.824  11.189  70.331  1.00  0.00    -0.120 OA 
HETATM   18  C   UNL     1      -7.198  14.004  68.446  1.00  0.00    -0.108 A  
HETATM   19  H   UNL     1      -6.109  10.458  69.796  1.00  0.00     0.000 HD 
HETATM   20  C   UNL     1      -8.072  14.140  67.211  1.00  0.00    -0.188 C  
HETATM   21  C   UNL     1      -8.907  15.439  67.115  1.00  0.00    -0.234 C  
HETATM   22  C   UNL     1      -7.899  16.601  67.279  1.00  0.00    -0.194 C  
ENDROOT
BRANCH  21  23
HETATM   23  C   UNL     1     -10.041  15.454  68.161  1.00  0.00    -0.222 C  
BRANCH  23  24
HETATM   24  C   UNL     1     -11.432  15.118  67.656  1.00  0.00    -0.319 C  
BRANCH  24  25
HETATM   25  C   UNL     1     -11.372  14.630  66.200  1.00  0.00    -0.350 C  
BRANCH  25  26
HETATM   26  C   UNL     1     -11.849  13.182  65.990  1.00  0.00    -0.457 C  
BRANCH  26  27
HETATM   27  C   UNL     1     -10.755  12.232  65.502  1.00  0.00    -0.314 C  
BRANCH  27  28
HETATM   28  C   UNL     1     -10.546  11.064  66.467  1.00  0.00    -0.310 C  
BRANCH  28  29
HETATM   29  C   UNL     1     -10.173  11.508  67.883  1.00  0.00    -0.200 C  
BRANCH  29  30
HETATM   30  C   UNL     1     -11.340  11.540  68.882  1.00  0.00    -0.331 C  
BRANCH  30  31
HETATM   31  C   UNL     1     -11.791  10.182  69.402  1.00  0.00     0.043 C  
BRANCH  31  32
HETATM   32  S   UNL     1     -12.706  10.313  70.973  1.00  0.00    -0.417 S  
HETATM   33  O   UNL     1     -11.794   9.825  72.061  1.00  0.00    -0.261 OA 
BRANCH  32  34
HETATM   34  C   UNL     1     -12.743  12.131  71.080  1.00  0.00    -0.253 C  
BRANCH  34  35
HETATM   35  C   UNL     1     -13.573  12.615  72.264  1.00  0.00    -0.508 C  
BRANCH  35  36
HETATM   36  C   UNL     1     -14.004  14.070  72.090  1.00  0.00    -0.633 C  
BRANCH  36  37
HETATM   37  C   UNL     1     -13.079  15.064  72.788  1.00  0.00    -0.453 C  
HETATM   38  F   UNL     1     -13.821  16.138  73.186  1.00  0.00    -0.659 F  
HETATM   39  C   UNL     1     -11.879  15.514  71.941  1.00  0.00    -0.434 C  
HETATM   40  F   UNL     1     -12.648  14.472  73.942  1.00  0.00    -0.575 F  
HETATM   41  F   UNL     1     -11.782  14.836  70.778  1.00  0.00    -0.293 F  
HETATM   42  F   UNL     1     -11.960  16.832  71.642  1.00  0.00    -0.342 F  
HETATM   43  F   UNL     1     -10.704  15.335  72.596  1.00  0.00    -0.192 F  
ENDBRANCH  36  37
ENDBRANCH  35  36
ENDBRANCH  34  35
ENDBRANCH  32  34
ENDBRANCH  31  32
ENDBRANCH  30  31
ENDBRANCH  29  30
ENDBRANCH  28  29
ENDBRANCH  27  28
ENDBRANCH  26  27
ENDBRANCH  25  26
ENDBRANCH  24  25
ENDBRANCH  23  24
ENDBRANCH  21  23
TORSDOF 14
ENDMDL
