MODEL       82
REMARK 921   NORMALIZED FREE ENERGY PREDICTED BY IDOCK:   -5.51 KCAL/MOL
REMARK 922        TOTAL FREE ENERGY PREDICTED BY IDOCK:   -9.55 KCAL/MOL
REMARK 923 INTER-LIGAND FREE ENERGY PREDICTED BY IDOCK:   -9.39 KCAL/MOL
REMARK 924 INTRA-LIGAND FREE ENERGY PREDICTED BY IDOCK:   -0.16 KCAL/MOL
REMARK 927      BINDING AFFINITY PREDICTED BY RF-SCORE:    0.00 PKD
ROOT
HETATM    1  N   UNL     1      -8.572  16.257  68.978  1.00  0.00    -0.252 N  
HETATM    2  C   UNL     1      -9.821  16.113  68.431  1.00  0.00    -0.222 C  
HETATM    3  H1  UNL     1      -8.113  15.397  69.278  1.00  0.00     0.000 HD 
HETATM    4  H2  UNL     1      -8.127  17.170  69.080  1.00  0.00     0.000 HD 
HETATM    5  O   UNL     1     -10.372  17.147  68.071  1.00  0.00    -0.318 OA 
ENDROOT
BRANCH   2   6
HETATM    6  C   UNL     1     -10.390  14.642  68.240  1.00  0.00    -0.230 C  
BRANCH   6   7
HETATM    7  C   UNL     1     -11.408  14.354  69.431  1.00  0.00    -0.319 A  
HETATM    8  C   UNL     1     -13.378  13.849  71.426  1.00  0.00    -0.363 A  
HETATM    9  C   UNL     1     -13.077  15.151  71.055  1.00  0.00    -0.513 A  
HETATM   10  C   UNL     1     -12.670  12.799  70.858  1.00  0.00    -0.277 A  
HETATM   11  C   UNL     1     -12.094  15.401  70.089  1.00  0.00    -0.400 A  
HETATM   12  C   UNL     1     -11.695  13.051  69.884  1.00  0.00    -0.326 A  
ENDBRANCH   6   7
BRANCH   6  13
HETATM   13  C   UNL     1     -11.117  14.551  66.846  1.00  0.00    -0.325 A  
HETATM   14  C   UNL     1     -10.709  15.371  65.766  1.00  0.00    -0.360 A  
HETATM   15  C   UNL     1     -11.388  15.373  64.543  1.00  0.00    -0.321 A  
HETATM   16  C   UNL     1     -12.477  14.535  64.347  1.00  0.00    -0.335 A  
HETATM   17  C   UNL     1     -12.191  13.681  66.599  1.00  0.00    -0.437 A  
HETATM   18  C   UNL     1     -12.872  13.677  65.374  1.00  0.00    -0.440 A  
ENDBRANCH   6  13
BRANCH   6  19
HETATM   19  C   UNL     1      -9.207  13.558  68.290  1.00  0.00    -0.195 C  
HETATM   20  C   UNL     1      -8.834  12.070  66.380  1.00  0.00    -0.126 C  
HETATM   21  N   UNL     1      -9.310  11.237  67.481  1.00  0.00    -0.161 NA 
HETATM   22  C   UNL     1      -9.522  12.098  68.656  1.00  0.00    -0.045 C  
HETATM   23  C   UNL     1      -8.380  13.379  67.006  1.00  0.00    -0.089 C  
BRANCH  21  24
HETATM   24  C   UNL     1     -10.503  10.432  67.159  1.00  0.00    -0.256 C  
BRANCH  24  25
HETATM   25  C   UNL     1     -10.243   8.919  67.035  1.00  0.00    -0.345 C  
BRANCH  25  26
HETATM   26  C   UNL     1     -10.534   8.183  68.331  1.00  0.00    -0.205 A  
HETATM   27  C   UNL     1     -10.666   8.897  69.530  1.00  0.00    -0.206 A  
HETATM   28  C   UNL     1     -10.961   8.202  70.694  1.00  0.00    -0.255 A  
HETATM   29  C   UNL     1     -11.134   6.831  70.675  1.00  0.00    -0.291 A  
HETATM   30  O   UNL     1     -11.451   6.293  71.893  1.00  0.00    -0.282 OA 
HETATM   31  C   UNL     1     -11.010   6.096  69.516  1.00  0.00    -0.463 A  
HETATM   32  C   UNL     1     -10.699   6.781  68.333  1.00  0.00    -0.284 A  
HETATM   33  C   UNL     1     -11.355   7.399  72.820  1.00  0.00    -0.308 C  
HETATM   34  C   UNL     1     -11.152   8.713  72.063  1.00  0.00    -0.437 C  
ENDBRANCH  25  26
ENDBRANCH  24  25
ENDBRANCH  21  24
ENDBRANCH   6  19
ENDBRANCH   2   6
TORSDOF 7
ENDMDL
