MODEL       87
REMARK 921   NORMALIZED FREE ENERGY PREDICTED BY IDOCK:   -5.14 KCAL/MOL
REMARK 922        TOTAL FREE ENERGY PREDICTED BY IDOCK:  -13.22 KCAL/MOL
REMARK 923 INTER-LIGAND FREE ENERGY PREDICTED BY IDOCK:  -11.23 KCAL/MOL
REMARK 924 INTRA-LIGAND FREE ENERGY PREDICTED BY IDOCK:   -1.99 KCAL/MOL
REMARK 927      BINDING AFFINITY PREDICTED BY RF-SCORE:    0.00 PKD
ROOT
HETATM    1  N   UNK A   1     -12.960   6.186  72.483  1.00  0.00    -0.325 NA 
HETATM    2  H1  UNK A   1     -13.021   5.168  72.444  1.00  0.00     0.000 HD 
HETATM    3  H2  UNK A   1     -13.621   6.612  71.834  1.00  0.00     0.000 HD 
HETATM    4  C   UNK A   1     -11.586   6.708  72.253  1.00  0.00    -0.278 C  
HETATM    5  O   UNK A   1      -9.547   6.471  73.602  1.00  0.00    -0.153 OA 
HETATM    6  C   UNK A   1     -10.626   6.027  73.244  1.00  0.00    -0.256 C  
HETATM    7  O   UNK A   1     -11.135   4.846  73.678  1.00  0.00    -0.311 OA 
ENDROOT
BRANCH   4   8
HETATM    8  C   UNK A   1     -11.495   8.234  72.312  1.00  0.00    -0.452 C  
BRANCH   8   9
HETATM    9  C   UNK A   1     -12.839   8.961  72.372  1.00  0.00    -0.446 C  
BRANCH   9  10
HETATM   10  C   UNK A   1     -13.062   9.733  71.092  1.00  0.00    -0.346 C  
HETATM   11  N   UNK A   1     -12.091  10.673  70.819  1.00  0.00    -0.341 N  
HETATM   12  O   UNK A   1     -14.049   9.559  70.384  1.00  0.00     0.363 OA 
HETATM   13  H   UNK A   1     -11.320  10.819  71.470  1.00  0.00     0.000 HD 
BRANCH  11  14
HETATM   14  C   UNK A   1     -12.176  11.465  69.584  1.00  0.00    -0.249 C  
BRANCH  14  15
HETATM   15  C   UNK A   1     -11.306  10.790  68.504  1.00  0.00    -0.295 C  
ATOM     16  H   GLY A   2      -9.672  10.901  69.768  1.00  0.00     0.000 HD 
ATOM     17  N   GLY A   2      -9.992  10.573  68.858  1.00  0.00    -0.194 N  
HETATM   18  O   UNK A   1     -11.740  10.485  67.404  1.00  0.00    -0.291 OA 
BRANCH  17  19
ATOM     19  CA  GLY A   2      -9.045   9.898  67.988  1.00  0.00    -0.121 C  
ATOM     20  C   GLY A   2      -8.623   8.517  68.462  1.00  0.00    -0.138 C  
ATOM     21  O   GLY A   2      -8.696   8.319  69.813  1.00  0.00    -0.131 OA 
ATOM     22  OXT GLY A   2      -8.183   7.650  67.722  1.00  0.00    -0.117 OA 
ENDBRANCH  17  19
ENDBRANCH  14  15
BRANCH  14  23
HETATM   23  C   UNK A   1     -11.732  12.916  69.837  1.00  0.00    -0.254 C  
BRANCH  23  24
HETATM   24  S   UNK A   1     -12.760  13.874  70.995  1.00  0.00    -0.347 SA 
BRANCH  24  25
HETATM   25  S   UNK A   1     -12.300  15.803  70.477  1.00  0.00    -0.265 SA 
BRANCH  25  26
HETATM   26  C   UNK A   1     -10.569  15.648  69.910  1.00  0.00    -0.321 C  
BRANCH  26  27
HETATM   27  C   UNK A   1     -10.277  16.234  68.516  1.00  0.00    -0.247 C  
BRANCH  27  28
HETATM   28  C   UNK A   1      -9.596  17.630  68.639  1.00  0.00    -0.307 C  
ATOM     29  H   GLY A   2      -7.856  16.941  67.712  1.00  0.00     0.000 HD 
ATOM     30  N   GLY A   2      -8.334  17.757  68.095  1.00  0.00    -0.256 N  
HETATM   31  O   UNK A   1     -10.185  18.616  69.080  1.00  0.00    -0.347 OA 
BRANCH  30  32
ATOM     32  CA  GLY A   2      -7.689  19.064  68.072  1.00  0.00    -0.273 C  
ATOM     33  OXT GLY A   2      -5.846  20.238  69.164  1.00  0.00    -0.273 OA 
ATOM     34  C   GLY A   2      -6.295  19.196  68.702  1.00  0.00    -0.248 C  
ATOM     35  O   GLY A   2      -5.499  18.125  68.522  1.00  0.00    -0.163 OA 
ENDBRANCH  30  32
ENDBRANCH  27  28
BRANCH  27  36
HETATM   36  N   UNK A   1      -9.728  15.268  67.540  1.00  0.00    -0.205 N  
HETATM   37  H   UNK A   1      -8.723  15.095  67.528  1.00  0.00     0.000 HD 
HETATM   38  O   UNK A   1     -11.753  14.632  66.679  1.00  0.00    -0.372 OA 
HETATM   39  C   UNK A   1     -10.528  14.594  66.647  1.00  0.00    -0.278 C  
BRANCH  39  40
HETATM   40  C   UNK A   1      -9.817  13.664  65.675  1.00  0.00    -0.196 C  
BRANCH  40  41
HETATM   41  C   UNK A   1     -10.474  12.295  65.419  1.00  0.00    -0.302 C  
BRANCH  41  42
HETATM   42  C   UNK A   1     -10.829  11.935  63.969  1.00  0.00    -0.379 C  
HETATM   43  N   UNK A   1      -9.925  12.590  62.987  1.00  0.00    -0.402 NA 
HETATM   44  C   UNK A   1     -12.241  12.394  63.657  1.00  0.00    -0.557 C  
HETATM   45  O   UNK A   1     -13.296  11.862  63.954  1.00  0.00    -0.600 OA 
HETATM   46  O   UNK A   1     -12.185  13.587  63.023  1.00  0.00    -0.557 OA 
HETATM   47  H2  UNK A   1      -8.948  12.382  63.190  1.00  0.00     0.000 HD 
HETATM   48  H1  UNK A   1     -10.160  12.351  62.024  1.00  0.00     0.000 HD 
ENDBRANCH  41  42
ENDBRANCH  40  41
ENDBRANCH  39  40
ENDBRANCH  27  36
ENDBRANCH  26  27
ENDBRANCH  25  26
ENDBRANCH  24  25
ENDBRANCH  23  24
ENDBRANCH  14  23
ENDBRANCH  11  14
ENDBRANCH   9  10
ENDBRANCH   8   9
ENDBRANCH   4   8
TORSDOF 17
ENDMDL
