MODEL        5
REMARK 921   NORMALIZED FREE ENERGY PREDICTED BY IDOCK:   -6.99 KCAL/MOL
REMARK 922        TOTAL FREE ENERGY PREDICTED BY IDOCK:   -9.54 KCAL/MOL
REMARK 923 INTER-LIGAND FREE ENERGY PREDICTED BY IDOCK:   -8.49 KCAL/MOL
REMARK 924 INTRA-LIGAND FREE ENERGY PREDICTED BY IDOCK:   -1.05 KCAL/MOL
REMARK 927      BINDING AFFINITY PREDICTED BY RF-SCORE:    0.00 PKD
ROOT
HETATM    1  C   UNL     1     -11.948  12.793  66.554  1.00  0.00    -0.358 A  
HETATM    2  C   UNL     1     -11.925  14.134  66.854  1.00  0.00    -0.449 A  
HETATM    3  N   UNL     1     -11.798  14.203  68.226  1.00  0.00    -0.352 NA 
HETATM    4  C   UNL     1     -11.687  12.913  68.666  1.00  0.00    -0.324 A  
HETATM    5  N   UNL     1     -11.797  12.044  67.687  1.00  0.00    -0.564 NA 
ENDROOT
BRANCH   3   6
HETATM    6  C   UNL     1     -11.873  15.458  69.005  1.00  0.00    -0.335 C  
BRANCH   6   7
HETATM    7  C   UNL     1     -12.322  15.264  70.458  1.00  0.00    -0.434 A  
HETATM    8  C   UNL     1     -11.345  15.293  71.476  1.00  0.00    -0.432 A  
HETATM    9  C   UNL     1     -11.703  15.253  72.825  1.00  0.00    -0.502 A  
HETATM   10  C   UNL     1     -13.668  15.175  70.850  1.00  0.00    -0.352 A  
HETATM   11  C   UNL     1     -13.043  15.186  73.189  1.00  0.00    -0.625 A  
HETATM   12  C   UNL     1     -14.023  15.142  72.203  1.00  0.00    -0.635 A  
ENDBRANCH   6   7
BRANCH   6  13
HETATM   13  C   UNL     1     -10.680  16.396  68.809  1.00  0.00    -0.321 A  
HETATM   14  C   UNL     1      -9.849  18.679  68.521  1.00  0.00    -0.427 A  
HETATM   15  C   UNL     1      -9.355  15.952  68.721  1.00  0.00    -0.220 A  
HETATM   16  C   UNL     1     -10.900  17.782  68.753  1.00  0.00     0.170 A  
HETATM   17  C   UNL     1      -8.309  16.850  68.454  1.00  0.00    -0.238 A  
HETATM   18  C   UNL     1      -8.535  18.231  68.316  1.00  0.00    -0.309 A  
BRANCH  18  19
HETATM   19  C   UNL     1      -7.455  19.167  67.918  1.00  0.00    -0.290 A  
HETATM   20  C   UNL     1      -6.646  19.821  68.866  1.00  0.00    -0.352 A  
HETATM   21  C   UNL     1      -5.685  20.765  68.482  1.00  0.00    -0.380 A  
HETATM   22  C   UNL     1      -5.502  21.067  67.137  1.00  0.00    -0.287 A  
HETATM   23  C   UNL     1      -6.273  20.423  66.177  1.00  0.00    -0.237 A  
HETATM   24  C   UNL     1      -7.237  19.488  66.564  1.00  0.00    -0.241 A  
ENDBRANCH  18  19
ENDBRANCH   6  13
ENDBRANCH   3   6
TORSDOF 4
ENDMDL
