MODEL        5
REMARK 921   NORMALIZED FREE ENERGY PREDICTED BY IDOCK:   -6.77 KCAL/MOL
REMARK 922        TOTAL FREE ENERGY PREDICTED BY IDOCK:  -13.23 KCAL/MOL
REMARK 923 INTER-LIGAND FREE ENERGY PREDICTED BY IDOCK:  -11.75 KCAL/MOL
REMARK 924 INTRA-LIGAND FREE ENERGY PREDICTED BY IDOCK:   -1.48 KCAL/MOL
REMARK 927      BINDING AFFINITY PREDICTED BY RF-SCORE:    0.00 PKD
ROOT
HETATM    1  C   UNL     1     -11.629   6.363  70.030  1.00  0.00    -0.446 C  
HETATM    2  C   UNL     1     -11.810   6.962  71.427  1.00  0.00    -0.330 C  
HETATM    3  C   UNL     1     -11.206   6.042  72.498  1.00  0.00    -0.333 C  
ENDROOT
BRANCH   2   4
HETATM    4  O   UNL     1     -11.419   8.373  71.488  1.00  0.00    -0.255 OA 
BRANCH   4   5
HETATM    5  C   UNL     1     -12.376   9.330  71.553  1.00  0.00    -0.360 C  
HETATM    6  O   UNL     1     -13.411   9.200  72.209  1.00  0.00    -0.424 OA 
BRANCH   5   7
HETATM    7  C   UNL     1     -12.125  10.630  70.735  1.00  0.00    -0.374 C  
HETATM    8  C   UNL     1     -12.810  11.804  71.433  1.00  0.00    -0.440 C  
BRANCH   7   9
HETATM    9  N   UNL     1     -12.401  10.638  69.246  1.00  0.00    -0.717 NA 
HETATM   10  H   UNL     1     -13.217  11.208  69.024  1.00  0.00     0.000 HD 
BRANCH   9  11
HETATM   11  P   UNL     1     -10.995  11.145  68.316  1.00  0.00    -0.278 P  
HETATM   12  O   UNL     1      -9.981  10.568  69.335  1.00  0.00    -0.222 OA 
BRANCH  11  13
HETATM   13  C   UNL     1     -10.403  12.905  68.774  1.00  0.00    -0.125 C  
BRANCH  13  14
HETATM   14  O   UNL     1     -11.515  13.854  68.989  1.00  0.00    -0.260 OA 
BRANCH  14  15
HETATM   15  C   UNL     1     -11.260  15.223  69.407  1.00  0.00    -0.285 C  
HETATM   16  C   UNL     1     -11.827  15.451  70.814  1.00  0.00    -0.394 C  
BRANCH  15  17
HETATM   17  C   UNL     1     -11.652  16.286  68.391  1.00  0.00    -0.154 C  
BRANCH  17  18
HETATM   18  N   UNL     1     -10.613  16.677  67.479  1.00  0.00    -0.323 NA 
HETATM   19  C   UNL     1     -10.334  16.148  66.247  1.00  0.00    -0.328 A  
HETATM   20  N   UNL     1      -9.367  16.804  65.644  1.00  0.00    -0.480 NA 
HETATM   21  C   UNL     1      -9.000  17.780  66.544  1.00  0.00    -0.261 A  
HETATM   22  C   UNL     1      -8.042  18.795  66.479  1.00  0.00    -0.289 A  
HETATM   23  N   UNL     1      -7.851  19.578  67.566  1.00  0.00    -0.258 NA 
HETATM   24  N   UNL     1      -7.284  19.009  65.339  1.00  0.00    -0.472 NA 
HETATM   25  C   UNL     1      -8.631  19.367  68.643  1.00  0.00    -0.358 A  
HETATM   26  H1  UNL     1      -6.584  19.750  65.291  1.00  0.00     0.000 HD 
HETATM   27  H2  UNL     1      -7.925  19.134  64.556  1.00  0.00     0.000 HD 
HETATM   28  N   UNL     1      -9.610  18.450  68.812  1.00  0.00    -0.339 NA 
HETATM   29  C   UNL     1      -9.733  17.694  67.711  1.00  0.00    -0.280 A  
ENDBRANCH  17  18
ENDBRANCH  15  17
ENDBRANCH  14  15
ENDBRANCH  13  14
ENDBRANCH  11  13
BRANCH  11  30
HETATM   30  O   UNL     1     -12.127  11.789  67.177  1.00  0.00    -0.592 OA 
BRANCH  30  31
HETATM   31  C   UNL     1     -11.707  11.853  65.860  1.00  0.00    -0.136 A  
HETATM   32  C   UNL     1     -10.522  11.186  65.544  1.00  0.00    -0.317 A  
HETATM   33  C   UNL     1     -11.871  12.600  63.558  1.00  0.00    -0.619 A  
HETATM   34  C   UNL     1     -12.388  12.555  64.860  1.00  0.00    -0.539 A  
HETATM   35  C   UNL     1     -10.677  11.951  63.252  1.00  0.00    -0.415 A  
HETATM   36  C   UNL     1     -10.004  11.245  64.245  1.00  0.00    -0.347 A  
ENDBRANCH  30  31
ENDBRANCH  11  30
ENDBRANCH   9  11
ENDBRANCH   7   9
ENDBRANCH   5   7
ENDBRANCH   4   5
ENDBRANCH   2   4
TORSDOF 12
ENDMDL
