MODEL       82
REMARK 921   NORMALIZED FREE ENERGY PREDICTED BY IDOCK:   -6.67 KCAL/MOL
REMARK 922        TOTAL FREE ENERGY PREDICTED BY IDOCK:   -8.69 KCAL/MOL
REMARK 923 INTER-LIGAND FREE ENERGY PREDICTED BY IDOCK:   -9.05 KCAL/MOL
REMARK 924 INTRA-LIGAND FREE ENERGY PREDICTED BY IDOCK:    0.36 KCAL/MOL
REMARK 927      BINDING AFFINITY PREDICTED BY RF-SCORE:    0.00 PKD
ROOT
HETATM    1  C   UNL     1     -11.114  13.810  69.043  1.00  0.00    -0.259 C  
ENDROOT
BRANCH   1   2
HETATM    2  C   UNL     1     -10.932  14.974  70.037  1.00  0.00    -0.268 C  
HETATM    3  C   UNL     1      -9.925  16.033  69.619  1.00  0.00    -0.226 C  
ENDBRANCH   1   2
BRANCH   1   4
HETATM    4  N   UNL     1     -12.221  14.131  68.134  1.00  0.00    -0.560 NA 
HETATM    5  H   UNL     1     -13.178  14.054  68.480  1.00  0.00     0.000 HD 
BRANCH   4   6
HETATM    6  C   UNL     1     -12.018  14.531  66.829  1.00  0.00    -0.342 A  
HETATM    7  C   UNL     1     -11.954  14.190  64.471  1.00  0.00    -0.458 A  
HETATM    8  N   UNL     1     -11.498  15.410  64.162  1.00  0.00    -0.177 NA 
HETATM    9  N   UNL     1     -12.695  12.372  65.618  1.00  0.00    -0.274 NA 
HETATM   10  C   UNL     1     -11.329  16.140  65.279  1.00  0.00     0.060 A  
HETATM   11  C   UNL     1     -12.654  12.103  64.323  1.00  0.00    -0.331 A  
HETATM   12  H   UNL     1     -12.993  11.753  66.373  1.00  0.00     0.000 HD 
HETATM   13  N   UNL     1     -11.550  15.781  66.561  1.00  0.00     0.250 NA 
HETATM   14  C   UNL     1     -12.245  13.678  65.725  1.00  0.00    -0.464 A  
HETATM   15  N   UNL     1     -12.220  13.175  63.595  1.00  0.00    -0.673 NA 
ENDBRANCH   4   6
ENDBRANCH   1   4
BRANCH   1  16
HETATM   16  C   UNL     1     -11.449  12.437  69.741  1.00  0.00    -0.149 C  
HETATM   17  O   UNL     1     -13.527  11.032  72.307  1.00  0.00    -0.328 OA 
HETATM   18  N   UNL     1     -10.944  11.363  69.199  1.00  0.00    -0.231 NA 
HETATM   19  C   UNL     1     -11.235  10.111  69.751  1.00  0.00    -0.272 A  
HETATM   20  N   UNL     1     -12.304  12.381  70.842  1.00  0.00    -0.346 N  
HETATM   21  C   UNL     1     -12.738  11.155  71.370  1.00  0.00    -0.418 C  
HETATM   22  C   UNL     1     -10.583   8.982  69.241  1.00  0.00    -0.226 A  
HETATM   23  C   UNL     1     -12.153   9.943  70.784  1.00  0.00    -0.396 A  
HETATM   24  C   UNL     1     -10.862   7.704  69.738  1.00  0.00    -0.222 A  
HETATM   25  C   UNL     1     -11.814   7.545  70.739  1.00  0.00    -0.254 A  
HETATM   26  F   UNL     1     -13.366   8.470  72.222  1.00  0.00    -0.334 F  
HETATM   27  C   UNL     1     -12.457   8.665  71.257  1.00  0.00    -0.252 A  
BRANCH  20  28
HETATM   28  C   UNL     1     -12.802  13.551  71.493  1.00  0.00    -0.352 A  
HETATM   29  C   UNL     1     -12.213  14.036  72.666  1.00  0.00     0.183 A  
HETATM   30  C   UNL     1     -12.683  15.214  73.251  1.00  0.00    -0.628 A  
HETATM   31  C   UNL     1     -13.747  15.907  72.675  1.00  0.00    -0.523 A  
HETATM   32  C   UNL     1     -14.373  15.402  71.538  1.00  0.00    -0.572 A  
HETATM   33  C   UNL     1     -13.918  14.218  70.963  1.00  0.00    -0.008 A  
ENDBRANCH  20  28
ENDBRANCH   1  16
TORSDOF 5
ENDMDL
