MODEL      127
REMARK 921   NORMALIZED FREE ENERGY PREDICTED BY IDOCK:   -4.38 KCAL/MOL
REMARK 922        TOTAL FREE ENERGY PREDICTED BY IDOCK:   -7.77 KCAL/MOL
REMARK 923 INTER-LIGAND FREE ENERGY PREDICTED BY IDOCK:   -6.72 KCAL/MOL
REMARK 924 INTRA-LIGAND FREE ENERGY PREDICTED BY IDOCK:   -1.05 KCAL/MOL
REMARK 927      BINDING AFFINITY PREDICTED BY RF-SCORE:    0.00 PKD
ROOT
HETATM    1  O   UNL     1      -7.958  13.436  69.084  1.00  0.00    -0.335 OA 
HETATM    2  C   UNL     1      -8.993  12.683  68.443  1.00  0.00    -0.125 C  
HETATM    3  H   UNL     1      -8.044  13.356  70.027  1.00  0.00     0.000 HD 
ENDROOT
BRANCH   2   4
HETATM    4  C   UNL     1      -8.874  11.210  68.911  1.00  0.00    -0.079 C  
BRANCH   4   5
HETATM    5  N   UNL     1     -10.136  10.383  68.857  1.00  0.00    -0.191 NA 
BRANCH   5   6
HETATM    6  C   UNL     1     -10.749  10.385  70.237  1.00  0.00    -0.187 C  
HETATM    7  O   UNL     1     -12.692  11.299  69.146  1.00  0.00    -0.205 OA 
HETATM    8  C   UNL     1     -12.009  11.244  70.314  1.00  0.00    -0.379 C  
HETATM    9  O   UNL     1     -12.385  11.808  71.329  1.00  0.00    -0.276 OA 
ENDBRANCH   5   6
BRANCH   5  10
HETATM   10  C   UNL     1      -9.764   8.963  68.521  1.00  0.00    -0.161 C  
HETATM   11  O   UNL     1     -10.360   9.552  66.270  1.00  0.00    -0.244 OA 
HETATM   12  O   UNL     1     -10.564   7.372  66.860  1.00  0.00    -0.326 OA 
HETATM   13  C   UNL     1     -10.288   8.528  67.151  1.00  0.00    -0.307 C  
ENDBRANCH   5  10
ENDBRANCH   4   5
ENDBRANCH   2   4
BRANCH   2  14
HETATM   14  C   UNL     1      -8.852  12.814  66.896  1.00  0.00    -0.194 C  
BRANCH  14  15
HETATM   15  N   UNL     1      -9.877  13.648  66.171  1.00  0.00    -0.299 NA 
BRANCH  15  16
HETATM   16  C   UNL     1     -11.231  13.014  66.389  1.00  0.00    -0.300 C  
HETATM   17  C   UNL     1     -11.918  12.618  65.086  1.00  0.00    -0.428 C  
HETATM   18  O   UNL     1     -11.035  12.292  64.107  1.00  0.00    -0.308 OA 
HETATM   19  O   UNL     1     -13.127  12.535  64.945  1.00  0.00    -0.833 OA 
ENDBRANCH  15  16
BRANCH  15  20
HETATM   20  C   UNL     1      -9.928  15.014  66.837  1.00  0.00    -0.244 C  
HETATM   21  C   UNL     1     -10.078  16.167  65.845  1.00  0.00    -0.354 C  
HETATM   22  O   UNL     1     -10.734  15.816  64.713  1.00  0.00    -0.500 OA 
HETATM   23  O   UNL     1      -9.698  17.304  66.063  1.00  0.00    -0.446 OA 
ENDBRANCH  15  20
ENDBRANCH  14  15
ENDBRANCH   2  14
TORSDOF 8
ENDMDL
