MODEL      116
REMARK 921   NORMALIZED FREE ENERGY PREDICTED BY IDOCK:   -5.88 KCAL/MOL
REMARK 922        TOTAL FREE ENERGY PREDICTED BY IDOCK:   -8.55 KCAL/MOL
REMARK 923 INTER-LIGAND FREE ENERGY PREDICTED BY IDOCK:   -7.74 KCAL/MOL
REMARK 924 INTRA-LIGAND FREE ENERGY PREDICTED BY IDOCK:   -0.81 KCAL/MOL
REMARK 927      BINDING AFFINITY PREDICTED BY RF-SCORE:    0.00 PKD
ROOT
HETATM    1  C   UNL     1      -7.550   9.201  66.033  1.00  0.00    -0.095 C  
HETATM    2  C   UNL     1      -9.084   9.196  65.983  1.00  0.00    -0.197 C  
ENDROOT
BRANCH   2   3
HETATM    3  C   UNL     1      -9.530   9.890  64.668  1.00  0.00    -0.343 C  
BRANCH   3   4
HETATM    4  C   UNL     1     -10.518  11.020  64.846  1.00  0.00    -0.371 A  
HETATM    5  C   UNL     1     -12.070  12.618  63.876  1.00  0.00    -0.567 A  
HETATM    6  H   UNL     1     -13.744  14.429  64.483  1.00  0.00     0.000 HD 
HETATM    7  C   UNL     1     -10.839  11.506  66.122  1.00  0.00    -0.330 A  
HETATM    8  C   UNL     1     -11.138  11.592  63.725  1.00  0.00    -0.499 A  
HETATM    9  C   UNL     1     -11.772  12.536  66.274  1.00  0.00    -0.462 A  
HETATM   10  O   UNL     1     -13.324  14.061  65.252  1.00  0.00    -0.741 OA 
HETATM   11  C   UNL     1     -12.387  13.075  65.148  1.00  0.00    -0.484 A  
ENDBRANCH   3   4
ENDBRANCH   2   3
BRANCH   2  12
HETATM   12  N   UNL     1      -9.632   7.834  66.077  1.00  0.00    -0.433 NA 
HETATM   13  H   UNL     1      -9.331   7.273  65.281  1.00  0.00     0.000 HD 
BRANCH  12  14
HETATM   14  C   UNL     1      -9.324   7.146  67.335  1.00  0.00    -0.127 C  
BRANCH  14  15
HETATM   15  C   UNL     1     -10.607   6.694  68.081  1.00  0.00    -0.241 C  
HETATM   16  H   UNL     1     -11.257   5.062  68.983  1.00  0.00     0.000 HD 
HETATM   17  O   UNL     1     -10.472   5.338  68.526  1.00  0.00    -0.157 OA 
BRANCH  15  18
HETATM   18  C   UNL     1     -10.902   7.586  69.272  1.00  0.00    -0.131 A  
HETATM   19  O   UNL     1     -12.141   7.349  72.732  1.00  0.00    -0.543 OA 
HETATM   20  C   UNL     1     -11.676   7.860  71.556  1.00  0.00    -0.283 A  
HETATM   21  C   UNL     1     -11.365   7.032  70.476  1.00  0.00    -0.355 A  
HETATM   22  C   UNL     1     -11.525   9.238  71.471  1.00  0.00    -0.454 A  
HETATM   23  H   UNL     1     -12.352   7.912  73.467  1.00  0.00     0.000 HD 
HETATM   24  C   UNL     1     -11.061   9.790  70.284  1.00  0.00    -0.292 A  
HETATM   25  O   UNL     1     -10.897  11.136  70.138  1.00  0.00    -0.457 OA 
HETATM   26  C   UNL     1     -10.749   8.982  69.195  1.00  0.00    -0.176 A  
HETATM   27  H   UNL     1     -10.580  11.514  69.326  1.00  0.00     0.000 HD 
ENDBRANCH  15  18
ENDBRANCH  14  15
ENDBRANCH  12  14
ENDBRANCH   2  12
TORSDOF 6
ENDMDL
