MODEL       21
REMARK 921   NORMALIZED FREE ENERGY PREDICTED BY IDOCK:   -6.57 KCAL/MOL
REMARK 922        TOTAL FREE ENERGY PREDICTED BY IDOCK:  -11.42 KCAL/MOL
REMARK 923 INTER-LIGAND FREE ENERGY PREDICTED BY IDOCK:  -11.32 KCAL/MOL
REMARK 924 INTRA-LIGAND FREE ENERGY PREDICTED BY IDOCK:   -0.10 KCAL/MOL
REMARK 927      BINDING AFFINITY PREDICTED BY RF-SCORE:    0.00 PKD
ROOT
HETATM    1  C   UNK     1      -9.248  13.349  67.531  1.00  0.00    -0.219 C  
HETATM    2  C   UNK     1      -7.997  14.068  68.003  1.00  0.00    -0.152 C  
HETATM    3  C   UNK     1      -8.221  15.590  68.246  1.00  0.00    -0.142 C  
HETATM    4  C   UNK     1      -8.878  16.235  67.048  1.00  0.00    -0.228 C  
HETATM    5  C   UNK     1      -8.448  17.622  66.650  1.00  0.00    -0.259 C  
HETATM    6  C   UNK     1      -9.783  15.569  66.309  1.00  0.00    -0.302 C  
HETATM    7  O   UNK     1     -10.317  16.106  65.130  1.00  0.00    -0.560 OA 
HETATM    8  C   UNK     1     -10.086  14.076  66.453  1.00  0.00    -0.294 C  
HETATM    9  C   UNK     1      -7.558  18.397  67.550  1.00  0.00    -0.226 A  
HETATM   10  O   UNK     1      -8.826  18.128  65.593  1.00  0.00    -0.285 OA 
HETATM   11  C   UNK     1      -7.320  19.762  67.315  1.00  0.00    -0.248 A  
HETATM   12  O   UNK     1      -9.722  13.596  65.153  1.00  0.00    -0.559 OA 
HETATM   13  C   UNK     1     -11.570  13.602  66.875  1.00  0.00    -0.367 C  
HETATM   14  H   UNK     1     -10.956  15.635  64.608  1.00  0.00     0.000 HD 
HETATM   15  C   UNK     1     -11.683  12.166  67.402  1.00  0.00    -0.374 C  
HETATM   16  O   UNK     1     -12.588  14.275  66.744  1.00  0.00    -0.276 OA 
HETATM   17  C   UNK     1      -6.535  20.520  68.185  1.00  0.00    -0.340 A  
HETATM   18  H   UNK     1     -10.236  14.042  64.491  1.00  0.00     0.000 HD 
HETATM   19  O   UNK     1      -7.804  20.436  66.225  1.00  0.00    -0.477 OA 
HETATM   20  H   UNK     1      -5.946  16.278  70.404  1.00  0.00     0.000 HD 
HETATM   21  H   UNK     1      -7.643  21.359  66.066  1.00  0.00     0.000 HD 
HETATM   22  C   UNK     1      -5.973  19.920  69.305  1.00  0.00    -0.318 A  
HETATM   23  C   UNK     1     -10.712  11.439  66.799  1.00  0.00    -0.271 C  
HETATM   24  C   UNK     1      -9.219  11.785  67.234  1.00  0.00    -0.173 C  
HETATM   25  C   UNK     1      -5.658  15.745  67.957  1.00  0.00    -0.140 C  
HETATM   26  O   UNK     1      -6.755  15.875  70.109  1.00  0.00    -0.042 OA 
HETATM   27  O   UNK     1     -10.853  11.101  65.448  1.00  0.00    -0.234 OA 
HETATM   28  C   UNK     1      -6.155  18.555  69.520  1.00  0.00    -0.277 A  
HETATM   29  C   UNK     1      -6.895  16.250  68.730  1.00  0.00    -0.151 C  
HETATM   30  C   UNK     1      -6.919  17.763  68.632  1.00  0.00    -0.247 A  
HETATM   31  H   UNK     1     -10.172  10.591  65.025  1.00  0.00     0.000 HD 
ENDROOT
BRANCH  15  32
HETATM   32  C   UNK     1     -11.719  11.763  68.862  1.00  0.00    -0.323 C  
HETATM   33  H   UNK     1     -11.089   9.779  68.623  1.00  0.00     0.000 HD 
HETATM   34  O   UNK     1     -12.025  12.601  69.717  1.00  0.00    -0.319 OA 
HETATM   35  N   UNK     1     -11.406  10.493  69.279  1.00  0.00    -0.254 N  
BRANCH  35  36
HETATM   36  C   UNK     1     -11.547  10.215  70.690  1.00  0.00    -0.343 C  
BRANCH  36  37
HETATM   37  N   UNK     1     -12.831   9.574  70.885  1.00  0.00    -0.527 NA 
HETATM   38  H   UNK     1     -13.439   9.677  70.072  1.00  0.00     0.000 HD 
BRANCH  37  39
HETATM   39  C   UNK     1     -12.632   8.159  71.252  1.00  0.00    -0.229 C  
BRANCH  39  40
HETATM   40  C   UNK     1     -11.712   7.988  72.474  1.00  0.00    -0.446 C  
BRANCH  40  41
HETATM   41  C   UNK     1     -11.086   6.593  72.582  1.00  0.00    -0.291 C  
BRANCH  41  42
HETATM   42  C   UNK     1     -10.520   6.329  73.989  1.00  0.00    -0.279 C  
BRANCH  42  43
HETATM   43  C   UNK     1      -9.738   5.014  74.126  1.00  0.00    -0.145 C  
HETATM   44  C   UNK     1     -10.405   3.891  73.316  1.00  0.00    -0.166 C  
HETATM   45  N   UNK     1      -8.324   5.157  73.672  1.00  0.00    -0.109 NA 
HETATM   46  O   UNK     1     -11.406   3.280  73.651  1.00  0.00    -0.224 OA 
HETATM   47  O   UNK     1      -9.744   3.673  72.148  1.00  0.00    -0.144 OA 
HETATM   48  H2  UNK     1      -7.854   5.920  74.158  1.00  0.00     0.000 HD 
HETATM   49  H1  UNK     1      -7.806   4.283  73.763  1.00  0.00     0.000 HD 
ENDBRANCH  42  43
ENDBRANCH  41  42
ENDBRANCH  40  41
ENDBRANCH  39  40
ENDBRANCH  37  39
ENDBRANCH  36  37
ENDBRANCH  35  36
ENDBRANCH  15  32
BRANCH  24  50
HETATM   50  N   UNK     1      -8.276  11.170  66.270  1.00  0.00    -0.169 NA 
HETATM   51  C   UNK     1      -6.861  11.405  66.461  1.00  0.00    -0.064 C  
HETATM   52  C   UNK     1      -8.535   9.731  66.139  1.00  0.00    -0.124 C  
ENDBRANCH  24  50
TORSDOF 9
ENDMDL
