MODEL       37
REMARK 921   NORMALIZED FREE ENERGY PREDICTED BY IDOCK:   -3.84 KCAL/MOL
REMARK 922        TOTAL FREE ENERGY PREDICTED BY IDOCK:  -10.59 KCAL/MOL
REMARK 923 INTER-LIGAND FREE ENERGY PREDICTED BY IDOCK:   -8.86 KCAL/MOL
REMARK 924 INTRA-LIGAND FREE ENERGY PREDICTED BY IDOCK:   -1.73 KCAL/MOL
REMARK 927      BINDING AFFINITY PREDICTED BY RF-SCORE:    0.00 PKD
ROOT
HETATM    1  C   UNL     1      -6.500  19.662  65.757  1.00  0.00    -0.248 C  
HETATM    2  C   UNL     1      -7.576  19.191  66.718  1.00  0.00    -0.251 C  
ENDROOT
BRANCH   2   3
HETATM    3  C   UNL     1      -8.886  19.939  66.489  1.00  0.00    -0.432 C  
BRANCH   3   4
HETATM    4  C   UNL     1      -9.846  19.709  67.651  1.00  0.00    -0.494 C  
BRANCH   4   5
HETATM    5  C   UNL     1     -10.754  18.519  67.378  1.00  0.00    -0.424 C  
BRANCH   5   6
HETATM    6  C   UNL     1     -10.325  17.314  68.209  1.00  0.00    -0.361 C  
BRANCH   6   7
HETATM    7  C   UNL     1     -10.454  16.045  67.384  1.00  0.00    -0.308 C  
BRANCH   7   8
HETATM    8  C   UNL     1      -9.919  16.236  65.968  1.00  0.00    -0.370 C  
BRANCH   8   9
HETATM    9  C   UNL     1     -10.863  15.534  65.002  1.00  0.00    -0.468 C  
BRANCH   9  10
HETATM   10  C   UNL     1     -10.536  14.054  64.857  1.00  0.00    -0.424 C  
BRANCH  10  11
HETATM   11  N   UNL     1     -11.788  13.151  65.008  1.00  0.00    -0.336 N  
HETATM   12  C   UNL     1     -12.983  13.976  65.488  1.00  0.00    -0.316 C  
HETATM   13  C   UNL     1     -12.123  12.485  63.671  1.00  0.00    -0.554 C  
BRANCH  11  14
HETATM   14  C   UNL     1     -11.417  12.078  66.063  1.00  0.00    -0.338 C  
BRANCH  14  15
HETATM   15  C   UNL     1     -10.114  12.393  66.784  1.00  0.00    -0.226 C  
BRANCH  15  16
HETATM   16  C   UNL     1     -10.280  12.382  68.297  1.00  0.00    -0.230 C  
BRANCH  16  17
HETATM   17  C   UNL     1      -9.909  10.995  68.811  1.00  0.00    -0.206 C  
BRANCH  17  18
HETATM   18  C   UNL     1     -11.028  10.386  69.640  1.00  0.00    -0.325 C  
BRANCH  18  19
HETATM   19  C   UNL     1     -11.950  11.486  70.148  1.00  0.00    -0.452 C  
BRANCH  19  20
HETATM   20  C   UNL     1     -12.837  10.964  71.273  1.00  0.00    -0.536 C  
BRANCH  20  21
HETATM   21  C   UNL     1     -12.726   9.447  71.397  1.00  0.00    -0.425 C  
BRANCH  21  22
HETATM   22  C   UNL     1     -13.924   8.881  72.151  1.00  0.00    -0.520 C  
HETATM   23  C   UNL     1     -14.344   7.537  71.586  1.00  0.00    -0.621 C  
ENDBRANCH  21  22
ENDBRANCH  20  21
ENDBRANCH  19  20
ENDBRANCH  18  19
ENDBRANCH  17  18
ENDBRANCH  16  17
ENDBRANCH  15  16
ENDBRANCH  14  15
ENDBRANCH  11  14
ENDBRANCH  10  11
ENDBRANCH   9  10
ENDBRANCH   8   9
ENDBRANCH   7   8
ENDBRANCH   6   7
ENDBRANCH   5   6
ENDBRANCH   4   5
ENDBRANCH   3   4
ENDBRANCH   2   3
TORSDOF 18
ENDMDL
