MODEL      268
REMARK 921   NORMALIZED FREE ENERGY PREDICTED BY IDOCK:   17.16 KCAL/MOL
REMARK 922        TOTAL FREE ENERGY PREDICTED BY IDOCK:   24.28 KCAL/MOL
REMARK 923 INTER-LIGAND FREE ENERGY PREDICTED BY IDOCK:   11.94 KCAL/MOL
REMARK 924 INTRA-LIGAND FREE ENERGY PREDICTED BY IDOCK:   12.34 KCAL/MOL
REMARK 927      BINDING AFFINITY PREDICTED BY RF-SCORE:    0.00 PKD
ROOT
HETATM    1  C   UNL     1     -12.909   9.786  69.525  1.00  0.00     1.501 C  
HETATM    2  C   UNL     1     -13.035  11.236  69.091  1.00  0.00     1.437 C  
ENDROOT
BRANCH   2   3
HETATM    3  O   UNL     1     -12.205  11.464  67.949  1.00  0.00    -0.592 OA 
BRANCH   3   4
HETATM    4  C   UNL     1     -10.904  11.543  68.231  1.00  0.00    -0.216 A  
HETATM    5  N   UNL     1     -10.048  10.563  68.109  1.00  0.00    -0.154 NA 
HETATM    6  C   UNL     1      -8.845  11.092  68.486  1.00  0.00    -0.159 A  
HETATM    7  C   UNL     1      -8.957  12.437  68.866  1.00  0.00     0.304 A  
HETATM    8  N   UNL     1     -10.298  12.708  68.645  1.00  0.00    -0.212 NA 
HETATM    9  C   UNL     1      -7.826  13.153  69.334  1.00  0.00     0.686 A  
HETATM   10  C   UNL     1      -6.586  12.479  69.334  1.00  0.00    -0.073 A  
HETATM   11  C   UNL     1      -7.595  10.454  68.496  1.00  0.00    -0.095 A  
HETATM   12  C   UNL     1      -6.468  11.160  68.908  1.00  0.00    -0.056 A  
BRANCH   9  13
HETATM   13  C   UNL     1      -7.843  14.581  69.728  1.00  0.00     0.280 C  
HETATM   14  O   UNL     1      -7.088  15.418  69.266  1.00  0.00    -0.149 OA 
BRANCH  13  15
HETATM   15  O   UNL     1      -8.757  14.791  70.714  1.00  0.00     1.529 OA 
BRANCH  15  16
HETATM   16  C   UNL     1      -9.693  13.722  70.929  1.00  0.00     5.190 C  
BRANCH  16  17
HETATM   17  C   UNL     1     -10.869  14.227  71.688  1.00  0.00     2.212 C  
HETATM   18  O   UNL     1     -12.893  14.485  72.602  1.00  0.00    -0.380 OA 
HETATM   19  C   UNL     1     -12.083  13.729  71.786  1.00  0.00     0.274 C  
HETATM   20  O   UNL     1     -10.761  15.402  72.415  1.00  0.00     0.276 OA 
HETATM   21  C   UNL     1     -12.635  12.476  71.260  1.00  0.00    -0.332 C  
HETATM   22  C   UNL     1     -12.028  15.496  72.981  1.00  0.00    -0.461 C  
HETATM   23  O   UNL     1     -12.360  16.398  73.741  1.00  0.00    -0.502 OA 
ENDBRANCH  16  17
ENDBRANCH  15  16
ENDBRANCH  13  15
ENDBRANCH   9  13
BRANCH   8  24
HETATM   24  C   UNL     1     -10.968  13.997  68.604  1.00  0.00    -0.263 C  
BRANCH  24  25
HETATM   25  C   UNL     1     -10.076  15.193  68.359  1.00  0.00    -0.225 A  
HETATM   26  C   UNL     1      -9.950  16.272  69.234  1.00  0.00    -0.259 A  
HETATM   27  C   UNL     1      -8.487  16.298  66.866  1.00  0.00    -0.257 A  
HETATM   28  C   UNL     1      -8.360  17.400  67.727  1.00  0.00    -0.218 A  
HETATM   29  C   UNL     1      -9.316  15.213  67.181  1.00  0.00    -0.223 A  
HETATM   30  C   UNL     1      -9.063  17.317  68.947  1.00  0.00    -0.172 A  
BRANCH  28  31
HETATM   31  C   UNL     1      -7.466  18.558  67.409  1.00  0.00    -0.223 A  
HETATM   32  C   UNL     1      -5.266  19.624  67.774  1.00  0.00    -0.180 A  
HETATM   33  C   UNL     1      -6.095  18.497  67.773  1.00  0.00    -0.189 A  
HETATM   34  C   UNL     1      -5.758  20.843  67.339  1.00  0.00    -0.301 A  
HETATM   35  C   UNL     1      -7.065  20.919  66.868  1.00  0.00    -0.333 A  
HETATM   36  C   UNL     1      -7.912  19.792  66.880  1.00  0.00    -0.322 A  
BRANCH  36  37
HETATM   37  C   UNL     1      -9.241  20.011  66.280  1.00  0.00    -0.334 C  
HETATM   38  N   UNL     1     -10.341  20.149  66.942  1.00  0.00    -0.421 NA 
HETATM   39  O   UNL     1     -11.350  20.356  65.949  1.00  0.00     0.580 OA 
HETATM   40  C   UNL     1     -10.708  20.327  64.738  1.00  0.00     1.251 C  
HETATM   41  N   UNL     1      -9.399  20.130  64.955  1.00  0.00     0.657 NA 
HETATM   42  O   UNL     1     -11.244  20.440  63.644  1.00  0.00     3.062 OA 
ENDBRANCH  36  37
ENDBRANCH  28  31
ENDBRANCH  24  25
ENDBRANCH   8  24
ENDBRANCH   3   4
ENDBRANCH   2   3
TORSDOF 10
ENDMDL
