MODEL        6
REMARK 921   NORMALIZED FREE ENERGY PREDICTED BY IDOCK:   -7.61 KCAL/MOL
REMARK 922        TOTAL FREE ENERGY PREDICTED BY IDOCK:  -10.18 KCAL/MOL
REMARK 923 INTER-LIGAND FREE ENERGY PREDICTED BY IDOCK:   -9.40 KCAL/MOL
REMARK 924 INTRA-LIGAND FREE ENERGY PREDICTED BY IDOCK:   -0.78 KCAL/MOL
REMARK 927      BINDING AFFINITY PREDICTED BY RF-SCORE:    0.00 PKD
ROOT
HETATM    1  F   UNL     1     -14.210  13.249  72.581  1.00  0.00    -0.614 F  
HETATM    2  C   UNL     1     -13.415  13.754  71.628  1.00  0.00    -0.333 A  
HETATM    3  C   UNL     1     -13.579  15.070  71.220  1.00  0.00    -0.526 A  
HETATM    4  C   UNL     1     -12.758  15.590  70.211  1.00  0.00    -0.310 A  
HETATM    5  C   UNL     1     -11.763  14.798  69.603  1.00  0.00    -0.354 A  
HETATM    6  C   UNL     1     -10.926  15.374  68.446  1.00  0.00    -0.284 C  
HETATM    7  C   UNL     1     -11.627  13.470  70.044  1.00  0.00    -0.234 A  
HETATM    8  C   UNL     1      -9.403  15.522  68.748  1.00  0.00    -0.209 C  
HETATM    9  C   UNL     1     -12.446  12.950  71.050  1.00  0.00    -0.374 A  
HETATM   10  C   UNL     1     -11.274  14.872  67.036  1.00  0.00    -0.344 A  
HETATM   11  C   UNL     1     -12.241  13.882  66.793  1.00  0.00    -0.438 A  
HETATM   12  F   UNL     1     -12.355  13.835  63.164  1.00  0.00    -0.545 F  
HETATM   13  C   UNL     1     -10.690  15.502  65.921  1.00  0.00    -0.346 A  
HETATM   14  C   UNL     1     -12.594  13.522  65.487  1.00  0.00    -0.531 A  
HETATM   15  C   UNL     1     -11.993  14.162  64.411  1.00  0.00    -0.457 A  
HETATM   16  C   UNL     1     -11.042  15.148  64.614  1.00  0.00    -0.338 A  
ENDROOT
BRANCH   8  17
HETATM   17  C   UNL     1      -8.545  14.312  69.141  1.00  0.00     0.156 C  
BRANCH  17  18
HETATM   18  C   UNL     1      -7.948  13.436  68.034  1.00  0.00    -0.148 C  
BRANCH  18  19
HETATM   19  N   UNL     1      -8.722  12.285  67.566  1.00  0.00    -0.167 NA 
HETATM   20  C   UNL     1      -7.357  10.169  66.914  1.00  0.00    -0.092 C  
HETATM   21  C   UNL     1      -8.131  11.448  66.510  1.00  0.00    -0.141 C  
HETATM   22  C   UNL     1      -7.852   9.456  68.191  1.00  0.00    -0.087 C  
HETATM   23  C   UNL     1      -8.120  10.546  69.230  1.00  0.00    -0.152 C  
HETATM   24  C   UNL     1      -9.196  11.485  68.700  1.00  0.00    -0.132 C  
BRANCH  22  25
HETATM   25  N   UNL     1      -8.983   8.527  68.053  1.00  0.00    -0.141 N  
HETATM   26  C   UNL     1      -9.827   8.338  66.932  1.00  0.00    -0.247 C  
HETATM   27  O   UNL     1      -9.782   8.866  65.835  1.00  0.00    -0.255 OA 
HETATM   28  N   UNL     1     -10.787   7.383  67.303  1.00  0.00    -0.292 NA 
HETATM   29  C   UNL     1     -10.569   6.998  68.612  1.00  0.00    -0.210 A  
HETATM   30  C   UNL     1     -11.296   6.107  69.380  1.00  0.00    -0.401 A  
HETATM   31  C   UNL     1     -10.889   5.933  70.699  1.00  0.00    -0.363 A  
HETATM   32  C   UNL     1      -9.778   6.633  71.210  1.00  0.00    -0.183 A  
HETATM   33  C   UNL     1      -9.040   7.507  70.399  1.00  0.00    -0.153 A  
HETATM   34  C   UNL     1      -9.463   7.691  69.096  1.00  0.00    -0.154 A  
ENDBRANCH  22  25
ENDBRANCH  18  19
ENDBRANCH  17  18
ENDBRANCH   8  17
TORSDOF 4
ENDMDL
