MODEL      372
REMARK 921   NORMALIZED FREE ENERGY PREDICTED BY IDOCK:   -0.02 KCAL/MOL
REMARK 922        TOTAL FREE ENERGY PREDICTED BY IDOCK:   -1.88 KCAL/MOL
REMARK 923 INTER-LIGAND FREE ENERGY PREDICTED BY IDOCK:   -1.88 KCAL/MOL
REMARK 924 INTRA-LIGAND FREE ENERGY PREDICTED BY IDOCK:   -0.00 KCAL/MOL
REMARK 927      BINDING AFFINITY PREDICTED BY RF-SCORE:    0.00 PKD
ROOT
HETATM    1  C   UNL     1     -12.402  16.755  67.688  1.00  0.00     2.335 C  
HETATM    2  N   UNL     1     -11.842  15.437  67.568  1.00  0.00    -0.224 N  
HETATM    3  C   UNL     1     -11.639  14.640  68.674  1.00  0.00    -0.314 C  
HETATM    4  H   UNL     1     -11.589  15.085  66.646  1.00  0.00     0.000 HD 
HETATM    5  O   UNL     1     -11.901  14.990  69.819  1.00  0.00    -0.284 OA 
ENDROOT
BRANCH   3   6
HETATM    6  C   UNL     1     -11.088  13.276  68.382  1.00  0.00    -0.270 A  
HETATM    7  N   UNL     1     -11.467  12.261  69.210  1.00  0.00    -0.281 NA 
HETATM    8  C   UNL     1     -10.905  11.055  68.967  1.00  0.00    -0.229 A  
HETATM    9  C   UNL     1      -9.960  10.821  67.977  1.00  0.00    -0.183 A  
HETATM   10  C   UNL     1      -9.579  11.885  67.167  1.00  0.00    -0.186 A  
HETATM   11  C   UNL     1     -10.195  13.125  67.335  1.00  0.00    -0.232 A  
BRANCH  10  12
HETATM   12  O   UNL     1      -8.601  11.640  66.219  1.00  0.00    -0.175 OA 
BRANCH  12  13
HETATM   13  C   UNL     1      -8.068  10.368  66.153  1.00  0.00    -0.139 A  
HETATM   14  C   UNL     1      -8.581   9.387  65.313  1.00  0.00    -0.182 A  
HETATM   15  C   UNL     1      -8.105   8.083  65.398  1.00  0.00    -0.135 A  
HETATM   16  C   UNL     1      -7.030   7.744  66.226  1.00  0.00    -0.063 A  
HETATM   17  C   UNL     1      -6.455   8.754  67.003  1.00  0.00    -0.061 A  
HETATM   18  C   UNL     1      -6.973  10.063  66.964  1.00  0.00    -0.088 A  
BRANCH  16  19
HETATM   19  N   UNL     1      -6.519   6.420  66.298  1.00  0.00    -0.042 N  
HETATM   20  H   UNL     1      -5.830   6.202  67.018  1.00  0.00     0.000 HD 
BRANCH  19  21
HETATM   21  C   UNL     1      -6.916   5.408  65.433  1.00  0.00    -0.065 C  
HETATM   22  O   UNL     1      -6.394   5.224  64.340  1.00  0.00    -0.028 OA 
BRANCH  21  23
HETATM   23  N   UNL     1      -7.960   4.634  65.907  1.00  0.00    -0.098 N  
HETATM   24  H   UNL     1      -8.610   4.230  65.232  1.00  0.00     0.000 HD 
BRANCH  23  25
HETATM   25  C   UNL     1      -8.174   4.374  67.296  1.00  0.00    -0.100 A  
HETATM   26  C   UNL     1      -7.295   4.810  68.295  1.00  0.00    -0.066 A  
HETATM   27  C   UNL     1      -7.449   4.463  69.649  1.00  0.00    -0.051 A  
HETATM   28  C   UNL     1      -6.404   4.892  70.642  1.00  0.00    -0.026 C  
HETATM   29  C   UNL     1      -8.563   3.710  70.008  1.00  0.00    -0.061 A  
HETATM   30  F   UNL     1      -5.821   3.844  71.291  1.00  0.00    -0.011 F  
HETATM   31  F   UNL     1      -6.896   5.715  71.609  1.00  0.00    -0.057 F  
HETATM   32  F   UNL     1      -5.367   5.581  70.082  1.00  0.00    -0.004 F  
HETATM   33 CL   UNL     1      -8.863   3.249  71.643  1.00  0.00    -0.123 Cl 
HETATM   34  C   UNL     1      -9.486   3.309  69.031  1.00  0.00    -0.187 A  
HETATM   35  C   UNL     1      -9.293   3.633  67.681  1.00  0.00    -0.246 A  
ENDBRANCH  23  25
ENDBRANCH  21  23
ENDBRANCH  19  21
ENDBRANCH  16  19
ENDBRANCH  12  13
ENDBRANCH  10  12
ENDBRANCH   3   6
TORSDOF 7
ENDMDL
