MODEL      279
REMARK 921   NORMALIZED FREE ENERGY PREDICTED BY IDOCK:    2.18 KCAL/MOL
REMARK 922        TOTAL FREE ENERGY PREDICTED BY IDOCK:    2.35 KCAL/MOL
REMARK 923 INTER-LIGAND FREE ENERGY PREDICTED BY IDOCK:   -0.05 KCAL/MOL
REMARK 924 INTRA-LIGAND FREE ENERGY PREDICTED BY IDOCK:    2.40 KCAL/MOL
REMARK 927      BINDING AFFINITY PREDICTED BY RF-SCORE:    0.00 PKD
ROOT
HETATM    1  C   UNL     1      -8.278  11.515  66.416  1.00  0.00    -0.092 C  
HETATM    2  N   UNL     1      -8.249  12.793  67.138  1.00  0.00    -0.171 NA 
HETATM    3  C   UNL     1      -6.864  13.130  67.474  1.00  0.00    -0.149 C  
ENDROOT
BRANCH   2   4
HETATM    4  C   UNL     1      -8.887  13.837  66.309  1.00  0.00     0.253 C  
BRANCH   4   5
HETATM    5  C   UNL     1     -10.400  13.653  66.079  1.00  0.00    -0.305 C  
BRANCH   5   6
HETATM    6  C   UNL     1     -10.999  14.819  65.348  1.00  0.00    -0.365 A  
HETATM    7  C   UNL     1     -11.761  14.754  64.195  1.00  0.00    -0.147 A  
HETATM    8  N   UNL     1     -12.073  16.028  63.813  1.00  0.00    -1.255 NA 
HETATM    9  C   UNL     1     -11.550  16.934  64.706  1.00  0.00     0.736 A  
HETATM   10  H   UNL     1     -12.617  16.272  62.985  1.00  0.00     0.000 HD 
HETATM   11  C   UNL     1     -10.880  16.207  65.688  1.00  0.00    -0.246 A  
HETATM   12  C   UNL     1     -10.249  16.919  66.734  1.00  0.00    -0.306 A  
HETATM   13  C   UNL     1     -10.290  18.327  66.768  1.00  0.00    -0.403 A  
HETATM   14  C   UNL     1     -10.986  19.010  65.760  1.00  0.00    -0.060 A  
HETATM   15  C   UNL     1     -11.616  18.331  64.711  1.00  0.00     3.498 A  
BRANCH  13  16
HETATM   16  C   UNL     1      -9.604  19.072  67.894  1.00  0.00    -0.318 C  
BRANCH  16  17
HETATM   17  S   UNL     1      -8.350  18.008  68.648  1.00  0.00    -0.228 S  
HETATM   18  O   UNL     1      -7.635  18.756  69.663  1.00  0.00     0.124 OA 
HETATM   19  O   UNL     1      -7.646  17.271  67.623  1.00  0.00    -0.174 OA 
BRANCH  17  20
HETATM   20  N   UNL     1      -9.277  16.853  69.495  1.00  0.00     0.162 N  
HETATM   21  C   UNL     1     -10.652  17.329  69.815  1.00  0.00     0.216 C  
HETATM   22  C   UNL     1     -11.418  16.064  70.149  1.00  0.00    -0.350 C  
HETATM   23  C   UNL     1     -10.841  15.036  69.196  1.00  0.00    -0.251 C  
HETATM   24  C   UNL     1      -9.404  15.484  68.929  1.00  0.00    -0.222 C  
ENDBRANCH  17  20
ENDBRANCH  16  17
ENDBRANCH  13  16
ENDBRANCH   5   6
ENDBRANCH   4   5
ENDBRANCH   2   4
TORSDOF 6
ENDMDL
