MODEL      160
REMARK 921   NORMALIZED FREE ENERGY PREDICTED BY IDOCK:   -4.39 KCAL/MOL
REMARK 922        TOTAL FREE ENERGY PREDICTED BY IDOCK:   -6.12 KCAL/MOL
REMARK 923 INTER-LIGAND FREE ENERGY PREDICTED BY IDOCK:   -5.87 KCAL/MOL
REMARK 924 INTRA-LIGAND FREE ENERGY PREDICTED BY IDOCK:   -0.25 KCAL/MOL
REMARK 927      BINDING AFFINITY PREDICTED BY RF-SCORE:    0.00 PKD
ROOT
HETATM    1  N   UNL     1     -10.539   7.307  73.958  1.00  0.00    -0.564 NA 
HETATM    2  H1  UNL     1     -10.163   8.249  73.844  1.00  0.00     0.000 HD 
HETATM    3  CA  UNL     1     -10.839   6.683  72.638  1.00  0.00    -0.248 C  
HETATM    4  H2  UNL     1      -9.919   6.721  74.517  1.00  0.00     0.000 HD 
ENDROOT
BRANCH   3   5
HETATM    5  C   UNL     1     -11.404   5.266  72.808  1.00  0.00    -0.276 C  
HETATM    6  H   UNL     1     -10.811   3.430  72.425  1.00  0.00     0.000 HD 
HETATM    7  O   UNL     1     -10.461   4.307  72.320  1.00  0.00    -0.170 OA 
ENDBRANCH   3   5
BRANCH   3   8
HETATM    8  C   UNL     1     -11.804   7.559  71.835  1.00  0.00    -0.296 C  
HETATM    9  O   UNL     1     -13.029   7.447  71.873  1.00  0.00    -0.314 OA 
HETATM   10  H   UNL     1     -10.137   8.519  71.000  1.00  0.00     0.000 HD 
HETATM   11  N   UNL     1     -11.155   8.463  71.002  1.00  0.00    -0.251 N  
BRANCH  11  12
HETATM   12  N   UNL     1     -11.912   9.301  70.159  1.00  0.00    -0.454 NA 
HETATM   13  H   UNL     1     -12.523   9.917  70.695  1.00  0.00     0.000 HD 
BRANCH  12  14
HETATM   14  C   UNL     1     -11.046  10.063  69.241  1.00  0.00    -0.206 C  
BRANCH  14  15
HETATM   15  C   UNL     1     -11.403  11.534  69.212  1.00  0.00    -0.353 A  
HETATM   16  C   UNL     1     -11.435  12.301  68.039  1.00  0.00    -0.321 A  
HETATM   17  O   UNL     1     -11.159  11.786  66.794  1.00  0.00    -0.277 OA 
HETATM   18  C   UNL     1     -11.765  13.653  68.083  1.00  0.00    -0.357 A  
HETATM   19  H   UNL     1     -11.182  12.305  65.999  1.00  0.00     0.000 HD 
HETATM   20  C   UNL     1     -12.043  14.271  69.292  1.00  0.00    -0.313 A  
HETATM   21  O   UNL     1     -11.831  14.387  66.928  1.00  0.00    -0.392 OA 
HETATM   22  H   UNL     1     -12.056  15.309  66.958  1.00  0.00     0.000 HD 
HETATM   23  C   UNL     1     -11.988  13.551  70.473  1.00  0.00    -0.344 A  
HETATM   24  O   UNL     1     -12.369  15.597  69.324  1.00  0.00    -0.584 OA 
HETATM   25  H   UNL     1     -12.560  16.021  70.153  1.00  0.00     0.000 HD 
HETATM   26  C   UNL     1     -11.666  12.188  70.434  1.00  0.00    -0.150 A  
ENDBRANCH  14  15
ENDBRANCH  12  14
ENDBRANCH  11  12
ENDBRANCH   3   8
TORSDOF 5
ENDMDL
