MODEL      138
REMARK 921   NORMALIZED FREE ENERGY PREDICTED BY IDOCK:    1.74 KCAL/MOL
REMARK 922        TOTAL FREE ENERGY PREDICTED BY IDOCK:    0.92 KCAL/MOL
REMARK 923 INTER-LIGAND FREE ENERGY PREDICTED BY IDOCK:    1.30 KCAL/MOL
REMARK 924 INTRA-LIGAND FREE ENERGY PREDICTED BY IDOCK:   -0.38 KCAL/MOL
REMARK 927      BINDING AFFINITY PREDICTED BY RF-SCORE:    0.00 PKD
ROOT
HETATM    1  C   UNL     1     -11.217  18.363  66.326  1.00  0.00     0.819 C  
HETATM    2  N   UNL     1     -11.627  17.076  65.767  1.00  0.00     1.148 NA 
HETATM    3  C   UNL     1     -12.142  17.106  64.397  1.00  0.00     3.169 C  
ENDROOT
BRANCH   2   4
HETATM    4  C   UNL     1     -11.161  15.880  66.312  1.00  0.00    -0.014 A  
HETATM    5  C   UNL     1      -9.946  15.284  65.919  1.00  0.00    -0.368 A  
HETATM    6  C   UNL     1      -9.503  14.050  66.437  1.00  0.00    -0.278 A  
HETATM    7  C   UNL     1     -10.253  13.368  67.394  1.00  0.00    -0.237 A  
HETATM    8  C   UNL     1     -11.435  13.964  67.839  1.00  0.00    -0.350 A  
HETATM    9  C   UNL     1     -11.872  15.191  67.310  1.00  0.00    -0.072 A  
BRANCH   7  10
HETATM   10  C   UNL     1      -9.881  12.008  67.894  1.00  0.00    -0.196 C  
BRANCH  10  11
HETATM   11  C   UNL     1     -10.785  11.330  68.872  1.00  0.00    -0.246 A  
HETATM   12  C   UNL     1     -11.607   9.300  69.936  1.00  0.00     0.076 A  
HETATM   13  C   UNL     1     -10.845   9.939  68.938  1.00  0.00    -0.239 A  
HETATM   14  C   UNL     1     -11.544  12.064  69.784  1.00  0.00    -0.348 A  
HETATM   15  C   UNL     1     -12.310  11.411  70.768  1.00  0.00    -0.483 A  
HETATM   16  C   UNL     1     -12.348  10.012  70.895  1.00  0.00    -0.341 A  
BRANCH  16  17
HETATM   17  N   UNL     1     -13.031   9.378  71.921  1.00  0.00    -0.383 NA 
HETATM   18  C   UNL     1     -14.145  10.007  72.631  1.00  0.00     0.571 C  
HETATM   19  C   UNL     1     -12.577   8.125  72.521  1.00  0.00    -0.155 C  
ENDBRANCH  16  17
ENDBRANCH  10  11
BRANCH  10  20
HETATM   20  C   UNL     1      -8.695  11.413  67.558  1.00  0.00    -0.140 A  
HETATM   21  C   UNL     1      -6.636  10.281  68.265  1.00  0.00    -0.057 A  
HETATM   22  C   UNL     1      -7.344  10.261  65.847  1.00  0.00    -0.131 A  
HETATM   23  C   UNL     1      -7.663  11.102  68.550  1.00  0.00    -0.129 A  
HETATM   24  C   UNL     1      -8.338  11.105  66.164  1.00  0.00    -0.144 A  
HETATM   25  C   UNL     1      -6.521   9.613  66.922  1.00  0.00    -0.067 A  
BRANCH  25  26
HETATM   26  N   UNL     1      -5.761   8.569  66.713  1.00  0.00    -0.043 NA 
HETATM   27  C   UNL     1      -5.293   8.137  65.349  1.00  0.00    -0.032 C  
HETATM   28  C   UNL     1      -5.209   7.677  67.785  1.00  0.00    -0.030 C  
ENDBRANCH  25  26
ENDBRANCH  10  20
ENDBRANCH   7  10
ENDBRANCH   2   4
TORSDOF 6
ENDMDL
