MODEL      264
REMARK 921   NORMALIZED FREE ENERGY PREDICTED BY IDOCK:   -1.05 KCAL/MOL
REMARK 922        TOTAL FREE ENERGY PREDICTED BY IDOCK:   -1.60 KCAL/MOL
REMARK 923 INTER-LIGAND FREE ENERGY PREDICTED BY IDOCK:   -1.88 KCAL/MOL
REMARK 924 INTRA-LIGAND FREE ENERGY PREDICTED BY IDOCK:    0.28 KCAL/MOL
REMARK 927      BINDING AFFINITY PREDICTED BY RF-SCORE:    0.00 PKD
ROOT
HETATM    1  O5* UNL     1     -12.695  15.082  64.937  1.00  0.00    -0.184 OA 
HETATM    2  H5* UNL     1     -12.956  15.568  64.164  1.00  0.00     0.000 HD 
HETATM    3  C5* UNL     1     -12.117  15.938  65.922  1.00  0.00     1.266 C  
ENDROOT
BRANCH   3   4
HETATM    4  C4* UNL     1     -11.695  15.156  67.166  1.00  0.00    -0.130 C  
HETATM    5  O4* UNL     1     -11.221  13.842  66.820  1.00  0.00    -0.305 OA 
HETATM    6  C1* UNL     1     -10.437  13.412  67.943  1.00  0.00    -0.240 C  
HETATM    7  C2* UNL     1      -9.719  14.659  68.452  1.00  0.00    -0.217 C  
HETATM    8  H3* UNL     1     -10.390  16.985  69.525  1.00  0.00     0.000 HD 
HETATM    9  O3* UNL     1     -11.093  16.575  69.036  1.00  0.00    -0.319 OA 
HETATM   10  C3* UNL     1     -10.565  15.815  67.952  1.00  0.00    -0.282 C  
BRANCH   6  11
HETATM   11  N   UNL     1      -9.552  12.301  67.595  1.00  0.00    -0.186 N  
HETATM   12  C   UNL     1      -8.252  12.228  68.063  1.00  0.00    -0.163 C  
HETATM   13  C   UNL     1      -5.975  11.236  68.126  1.00  0.00    -0.045 C  
HETATM   14  C   UNL     1      -7.382  11.290  67.658  1.00  0.00    -0.100 C  
HETATM   15  C   UNL     1      -7.845  10.298  66.681  1.00  0.00    -0.116 C  
HETATM   16  O   UNL     1      -7.122   9.440  66.191  1.00  0.00    -0.089 OA 
HETATM   17  N   UNL     1      -9.162  10.388  66.320  1.00  0.00    -0.163 N  
HETATM   18  F   UNL     1      -5.186  10.304  67.542  1.00  0.00    -0.040 F  
HETATM   19  F   UNL     1      -5.353  12.431  67.931  1.00  0.00    -0.054 F  
HETATM   20  F   UNL     1      -5.918  11.001  69.466  1.00  0.00    -0.046 F  
HETATM   21  C   UNL     1     -10.038  11.375  66.681  1.00  0.00    -0.212 C  
HETATM   22  H   UNL     1      -9.527   9.645  65.723  1.00  0.00     0.000 HD 
HETATM   23  O   UNL     1     -11.167  11.410  66.194  1.00  0.00    -0.254 OA 
ENDBRANCH   6  11
ENDBRANCH   3   4
TORSDOF 2
ENDMDL
