MODEL       51
REMARK 921   NORMALIZED FREE ENERGY PREDICTED BY IDOCK:   -5.40 KCAL/MOL
REMARK 922        TOTAL FREE ENERGY PREDICTED BY IDOCK:   -6.37 KCAL/MOL
REMARK 923 INTER-LIGAND FREE ENERGY PREDICTED BY IDOCK:   -5.72 KCAL/MOL
REMARK 924 INTRA-LIGAND FREE ENERGY PREDICTED BY IDOCK:   -0.65 KCAL/MOL
REMARK 927      BINDING AFFINITY PREDICTED BY RF-SCORE:    0.00 PKD
ROOT
HETATM    1  C   UNL     1     -11.785  15.665  67.189  1.00  0.00     0.239 C  
HETATM    2  N   UNL     1     -11.232  14.447  66.619  1.00  0.00    -0.329 N  
HETATM    3  C   UNL     1      -9.891  14.058  66.923  1.00  0.00    -0.267 A  
HETATM    4  C   UNL     1      -9.470  12.709  66.982  1.00  0.00    -0.220 A  
HETATM    5  C   UNL     1      -8.120  12.387  67.208  1.00  0.00    -0.182 A  
HETATM    6  C   UNL     1     -10.444  11.580  66.900  1.00  0.00    -0.235 C  
HETATM    7  C   UNL     1      -7.200  13.400  67.461  1.00  0.00    -0.153 A  
HETATM    8  N   UNL     1     -11.325  11.480  65.959  1.00  0.00    -0.242 NA 
HETATM    9  H   UNL     1     -12.294  12.859  63.222  1.00  0.00     0.000 HD 
HETATM   10  O   UNL     1     -13.213  14.119  65.477  1.00  0.00    -0.688 OA 
HETATM   11  C   UNL     1      -7.601  14.730  67.457  1.00  0.00    -0.215 A  
HETATM   12  C   UNL     1     -11.427  12.543  64.975  1.00  0.00    -0.326 C  
HETATM   13  H   UNL     1     -11.939  10.668  65.909  1.00  0.00     0.000 HD 
HETATM   14 CL   UNL     1      -5.566  13.003  67.819  1.00  0.00    -0.125 Cl 
HETATM   15  O   UNL     1     -12.228  12.164  63.866  1.00  0.00    -0.450 OA 
HETATM   16  C   UNL     1     -12.054  13.761  65.711  1.00  0.00    -0.429 C  
HETATM   17  C   UNL     1      -8.933  15.055  67.180  1.00  0.00    -0.235 A  
ENDROOT
BRANCH   6  18
HETATM   18  C   UNL     1     -10.440  10.474  67.927  1.00  0.00    -0.247 A  
HETATM   19  C   UNL     1     -10.491   8.211  69.612  1.00  0.00    -0.224 A  
HETATM   20  C   UNL     1     -10.036   9.204  67.464  1.00  0.00    -0.284 A  
HETATM   21  C   UNL     1     -10.071   8.082  68.295  1.00  0.00    -0.227 A  
HETATM   22  C   UNL     1     -10.888   9.459  70.091  1.00  0.00    -0.287 A  
HETATM   23  C   UNL     1     -10.886  10.586  69.254  1.00  0.00    -0.243 A  
HETATM   24 CL   UNL     1     -11.550  12.025  69.947  1.00  0.00    -0.348 Cl 
ENDBRANCH   6  18
TORSDOF 1
ENDMDL
