MODEL        6
REMARK 921   NORMALIZED FREE ENERGY PREDICTED BY IDOCK:   -7.44 KCAL/MOL
REMARK 922        TOTAL FREE ENERGY PREDICTED BY IDOCK:  -12.56 KCAL/MOL
REMARK 923 INTER-LIGAND FREE ENERGY PREDICTED BY IDOCK:  -10.81 KCAL/MOL
REMARK 924 INTRA-LIGAND FREE ENERGY PREDICTED BY IDOCK:   -1.75 KCAL/MOL
REMARK 927      BINDING AFFINITY PREDICTED BY RF-SCORE:    0.00 PKD
ROOT
HETATM    1  O   UNL     1     -12.631  11.037  62.742  1.00  0.00    -0.406 OA 
HETATM    2  H   UNL     1     -12.055  10.585  62.136  1.00  0.00     0.000 HD 
HETATM    3  C   UNL     1     -12.186  12.048  63.539  1.00  0.00    -0.547 A  
HETATM    4  C   UNL     1     -13.028  12.708  64.424  1.00  0.00    -0.232 A  
HETATM    5  C   UNL     1     -12.540  13.784  65.183  1.00  0.00    -0.471 A  
HETATM    6  C   UNL     1     -11.202  14.203  65.082  1.00  0.00    -0.337 A  
HETATM    7  C   UNL     1     -10.364  13.467  64.221  1.00  0.00    -0.249 A  
HETATM    8  C   UNL     1     -10.856  12.409  63.443  1.00  0.00    -0.417 A  
ENDROOT
BRANCH   6   9
HETATM    9  C   UNL     1     -10.694  15.416  65.792  1.00  0.00    -0.351 A  
HETATM   10  C   UNL     1      -9.991  15.608  66.992  1.00  0.00    -0.242 A  
HETATM   11  C   UNL     1      -8.714  19.047  68.223  1.00  0.00    -0.366 A  
HETATM   12  C   UNL     1      -9.659  17.014  67.216  1.00  0.00    -0.244 A  
HETATM   13  O   UNL     1      -9.129  21.167  67.295  1.00  0.00    -0.559 OA 
HETATM   14  C   UNL     1     -10.212  17.833  66.234  1.00  0.00    -0.364 A  
HETATM   15  H   UNL     1      -8.621  21.567  67.991  1.00  0.00     0.000 HD 
HETATM   16  C   UNL     1      -8.868  17.657  68.212  1.00  0.00    -0.276 A  
HETATM   17  S   UNL     1     -11.082  16.936  65.080  1.00  0.00     0.240 SA 
HETATM   18  C   UNL     1     -10.048  19.232  66.225  1.00  0.00    -0.519 A  
HETATM   19  C   UNL     1      -9.305  19.816  67.241  1.00  0.00    -0.346 A  
BRANCH  10  20
HETATM   20  C   UNL     1      -9.518  14.499  67.824  1.00  0.00    -0.210 C  
HETATM   21  O   UNL     1      -8.331  14.428  68.142  1.00  0.00    -0.142 OA 
BRANCH  20  22
HETATM   22  C   UNL     1     -10.423  13.417  68.325  1.00  0.00    -0.256 A  
HETATM   23  C   UNL     1     -12.101  11.524  69.614  1.00  0.00    -0.296 A  
HETATM   24  C   UNL     1     -11.232  11.122  68.594  1.00  0.00    -0.314 A  
HETATM   25  C   UNL     1     -11.317  13.806  69.325  1.00  0.00    -0.325 A  
HETATM   26  C   UNL     1     -10.392  12.064  67.951  1.00  0.00    -0.209 A  
HETATM   27  C   UNL     1     -12.121  12.871  69.977  1.00  0.00    -0.357 A  
BRANCH  23  28
HETATM   28  O   UNL     1     -12.903  10.557  70.209  1.00  0.00    -0.295 OA 
BRANCH  28  29
HETATM   29  C   UNL     1     -12.452  10.241  71.537  1.00  0.00    -0.422 C  
BRANCH  29  30
HETATM   30  C   UNL     1     -11.313   9.214  71.679  1.00  0.00    -0.376 C  
BRANCH  30  31
HETATM   31  N   UNL     1     -11.811   7.956  72.305  1.00  0.00    -0.338 NA 
HETATM   32  C   UNL     1     -12.609   7.100  71.409  1.00  0.00    -0.394 C  
HETATM   33  C   UNL     1     -11.791   6.605  70.220  1.00  0.00    -0.378 C  
HETATM   34  C   UNL     1     -10.632   5.754  70.723  1.00  0.00    -0.337 C  
HETATM   35  C   UNL     1      -9.849   6.435  71.851  1.00  0.00    -0.172 C  
HETATM   36  C   UNL     1     -10.735   7.140  72.887  1.00  0.00    -0.302 C  
ENDBRANCH  30  31
ENDBRANCH  29  30
ENDBRANCH  28  29
ENDBRANCH  23  28
ENDBRANCH  20  22
ENDBRANCH  10  20
ENDBRANCH   6   9
TORSDOF 7
ENDMDL
