MODEL      149
REMARK 921   NORMALIZED FREE ENERGY PREDICTED BY IDOCK:   -5.17 KCAL/MOL
REMARK 922        TOTAL FREE ENERGY PREDICTED BY IDOCK:   -7.16 KCAL/MOL
REMARK 923 INTER-LIGAND FREE ENERGY PREDICTED BY IDOCK:   -7.57 KCAL/MOL
REMARK 924 INTRA-LIGAND FREE ENERGY PREDICTED BY IDOCK:    0.41 KCAL/MOL
REMARK 927      BINDING AFFINITY PREDICTED BY RF-SCORE:    0.00 PKD
ROOT
HETATM    1  F   UNL     1     -10.021   4.522  71.466  1.00  0.00    -0.221 F  
HETATM    2  C   UNL     1     -10.031   5.814  71.111  1.00  0.00    -0.192 A  
HETATM    3  C   UNL     1      -9.142   6.699  71.703  1.00  0.00    -0.142 A  
HETATM    4  C   UNL     1      -9.165   8.051  71.343  1.00  0.00    -0.180 A  
HETATM    5  C   UNL     1     -10.078   8.532  70.382  1.00  0.00    -0.208 A  
HETATM    6  C   UNL     1     -10.132  10.037  70.060  1.00  0.00    -0.289 C  
HETATM    7  C   UNL     1     -10.963   7.605  69.804  1.00  0.00    -0.178 A  
HETATM    8  C   UNL     1      -9.729  10.410  68.600  1.00  0.00    -0.178 C  
HETATM    9  C   UNL     1     -10.940   6.255  70.163  1.00  0.00    -0.411 A  
HETATM   10  C   UNL     1     -11.323  10.816  70.638  1.00  0.00    -0.202 A  
HETATM   11  C   UNL     1     -12.365  10.203  71.352  1.00  0.00    -0.515 A  
HETATM   12  F   UNL     1     -14.315  13.073  72.424  1.00  0.00    -0.491 F  
HETATM   13  C   UNL     1     -11.328  12.222  70.553  1.00  0.00     0.749 A  
HETATM   14  C   UNL     1     -13.382  10.963  71.943  1.00  0.00    -0.429 A  
HETATM   15  C   UNL     1     -13.356  12.348  71.834  1.00  0.00    -0.349 A  
HETATM   16  C   UNL     1     -12.340  12.986  71.142  1.00  0.00    -0.270 A  
ENDROOT
BRANCH   8  17
HETATM   17  C   UNL     1     -10.483   9.837  67.393  1.00  0.00    -0.319 C  
BRANCH  17  18
HETATM   18  C   UNL     1     -11.399  10.762  66.583  1.00  0.00     0.247 C  
BRANCH  18  19
HETATM   19  N   UNL     1     -10.821  11.973  65.998  1.00  0.00    -0.278 NA 
HETATM   20  C   UNL     1     -12.437  13.988  65.696  1.00  0.00    -0.531 C  
HETATM   21  C   UNL     1     -11.674  12.775  65.108  1.00  0.00    -0.360 C  
HETATM   22  C   UNL     1     -11.742  14.721  66.864  1.00  0.00    -0.302 C  
HETATM   23  C   UNL     1     -11.191  13.642  67.796  1.00  0.00    -0.310 C  
HETATM   24  C   UNL     1     -10.182  12.792  67.033  1.00  0.00    -0.241 C  
BRANCH  22  25
HETATM   25  N   UNL     1     -10.733  15.734  66.523  1.00  0.00    -0.308 N  
HETATM   26  C   UNL     1      -9.866  15.763  65.403  1.00  0.00    -0.177 C  
HETATM   27  O   UNL     1      -9.792  14.988  64.466  1.00  0.00     0.126 OA 
HETATM   28  N   UNL     1      -9.054  16.898  65.548  1.00  0.00    -0.212 NA 
HETATM   29  C   UNL     1      -9.381  17.550  66.721  1.00  0.00    -0.265 A  
HETATM   30  C   UNL     1      -8.810  18.687  67.263  1.00  0.00    -0.283 A  
HETATM   31  C   UNL     1      -9.298  19.113  68.494  1.00  0.00    -0.426 A  
HETATM   32  C   UNL     1     -10.334  18.412  69.142  1.00  0.00     0.034 A  
HETATM   33  C   UNL     1     -10.917  17.279  68.554  1.00  0.00    -0.146 A  
HETATM   34  C   UNL     1     -10.413  16.850  67.340  1.00  0.00    -0.310 A  
ENDBRANCH  22  25
ENDBRANCH  18  19
ENDBRANCH  17  18
ENDBRANCH   8  17
TORSDOF 4
ENDMDL
