MODEL       51
REMARK 921   NORMALIZED FREE ENERGY PREDICTED BY IDOCK:   -3.75 KCAL/MOL
REMARK 922        TOTAL FREE ENERGY PREDICTED BY IDOCK:  -10.39 KCAL/MOL
REMARK 923 INTER-LIGAND FREE ENERGY PREDICTED BY IDOCK:   -8.97 KCAL/MOL
REMARK 924 INTRA-LIGAND FREE ENERGY PREDICTED BY IDOCK:   -1.43 KCAL/MOL
REMARK 927      BINDING AFFINITY PREDICTED BY RF-SCORE:    0.00 PKD
ROOT
HETATM    1  C   UNL     1     -10.440   5.587  70.401  1.00  0.00    -0.356 C  
HETATM    2  C   UNL     1     -11.604   6.550  70.261  1.00  0.00    -0.473 C  
ENDROOT
BRANCH   2   3
HETATM    3  C   UNL     1     -12.246   6.841  71.615  1.00  0.00    -0.410 C  
BRANCH   3   4
HETATM    4  C   UNL     1     -12.021   8.294  72.015  1.00  0.00    -0.405 C  
BRANCH   4   5
HETATM    5  C   UNL     1     -13.344   9.037  72.132  1.00  0.00    -0.510 C  
BRANCH   5   6
HETATM    6  C   UNL     1     -13.178  10.499  71.731  1.00  0.00    -0.522 C  
BRANCH   6   7
HETATM    7  C   UNL     1     -12.034  10.636  70.740  1.00  0.00    -0.477 C  
BRANCH   7   8
HETATM    8  C   UNL     1     -11.929  12.056  70.193  1.00  0.00    -0.401 C  
BRANCH   8   9
HETATM    9  C   UNL     1     -11.767  11.975  68.682  1.00  0.00    -0.380 C  
BRANCH   9  10
HETATM   10  C   UNL     1     -11.857  13.345  68.023  1.00  0.00    -0.357 C  
BRANCH  10  11
HETATM   11  N   UNL     1     -11.383  13.328  66.547  1.00  0.00    -0.312 N  
HETATM   12  C   UNL     1     -11.129  11.892  66.087  1.00  0.00    -0.326 C  
HETATM   13  C   UNL     1     -12.434  13.981  65.646  1.00  0.00    -0.504 C  
BRANCH  11  14
HETATM   14  C   UNL     1     -10.065  14.144  66.512  1.00  0.00    -0.280 C  
BRANCH  14  15
HETATM   15  C   UNL     1     -10.211  15.518  67.150  1.00  0.00    -0.260 C  
BRANCH  15  16
HETATM   16  C   UNL     1      -8.862  16.138  67.488  1.00  0.00    -0.198 C  
BRANCH  16  17
HETATM   17  C   UNL     1      -8.324  16.826  66.237  1.00  0.00    -0.353 C  
BRANCH  17  18
HETATM   18  C   UNL     1      -7.103  17.676  66.547  1.00  0.00    -0.282 C  
BRANCH  18  19
HETATM   19  C   UNL     1      -7.331  19.101  66.062  1.00  0.00    -0.295 C  
BRANCH  19  20
HETATM   20  C   UNL     1      -8.105  19.904  67.102  1.00  0.00    -0.341 C  
BRANCH  20  21
HETATM   21  C   UNL     1      -9.539  20.154  66.644  1.00  0.00    -0.547 C  
BRANCH  21  22
HETATM   22  C   UNL     1     -10.517  19.929  67.792  1.00  0.00    -0.511 C  
HETATM   23  C   UNL     1      -9.819  19.338  69.003  1.00  0.00    -0.466 C  
ENDBRANCH  21  22
ENDBRANCH  20  21
ENDBRANCH  19  20
ENDBRANCH  18  19
ENDBRANCH  17  18
ENDBRANCH  16  17
ENDBRANCH  15  16
ENDBRANCH  14  15
ENDBRANCH  11  14
ENDBRANCH  10  11
ENDBRANCH   9  10
ENDBRANCH   8   9
ENDBRANCH   7   8
ENDBRANCH   6   7
ENDBRANCH   5   6
ENDBRANCH   4   5
ENDBRANCH   3   4
ENDBRANCH   2   3
TORSDOF 18
ENDMDL
