MODEL       10
REMARK 921   NORMALIZED FREE ENERGY PREDICTED BY IDOCK:   -7.92 KCAL/MOL
REMARK 922        TOTAL FREE ENERGY PREDICTED BY IDOCK:  -11.83 KCAL/MOL
REMARK 923 INTER-LIGAND FREE ENERGY PREDICTED BY IDOCK:  -11.55 KCAL/MOL
REMARK 924 INTRA-LIGAND FREE ENERGY PREDICTED BY IDOCK:   -0.28 KCAL/MOL
REMARK 927      BINDING AFFINITY PREDICTED BY RF-SCORE:    0.00 PKD
ROOT
HETATM    1  C   UNL     1      -7.926  19.052  66.272  1.00  0.00    -0.302 C  
HETATM    2  C   UNL     1      -9.052  19.023  67.322  1.00  0.00    -0.313 C  
HETATM    3  C   UNL     1     -10.034  20.172  66.993  1.00  0.00    -0.596 C  
HETATM    4  C   UNL     1      -8.416  19.302  68.703  1.00  0.00    -0.403 C  
ENDROOT
BRANCH   2   5
HETATM    5  C   UNL     1      -9.783  17.669  67.345  1.00  0.00    -0.283 A  
HETATM    6  N   UNL     1     -10.320  17.051  68.383  1.00  0.00    -0.329 NA 
HETATM    7  C   UNL     1     -10.935  15.834  68.002  1.00  0.00    -0.330 A  
HETATM    8  C   UNL     1     -10.787  15.526  66.650  1.00  0.00    -0.285 A  
HETATM    9  S   UNL     1      -9.988  16.838  65.865  1.00  0.00    -0.230 SA 
BRANCH   7  10
HETATM   10  C   UNL     1     -11.651  15.015  69.003  1.00  0.00    -0.342 A  
HETATM   11  C   UNL     1     -11.354  13.648  69.174  1.00  0.00    -0.285 A  
HETATM   12  C   UNL     1     -12.619  15.566  69.863  1.00  0.00    -0.168 A  
HETATM   13  F   UNL     1     -10.472  13.028  68.372  1.00  0.00    -0.225 F  
HETATM   14  C   UNL     1     -13.191  14.821  70.903  1.00  0.00    -0.408 A  
HETATM   15  C   UNL     1     -11.931  12.893  70.212  1.00  0.00    -0.283 A  
HETATM   16  C   UNL     1     -12.841  13.487  71.082  1.00  0.00    -0.387 A  
BRANCH  15  17
HETATM   17  N   UNL     1     -11.528  11.537  70.442  1.00  0.00    -0.482 N  
HETATM   18  H   UNL     1     -10.553  11.266  70.318  1.00  0.00     0.000 HD 
BRANCH  17  19
HETATM   19  S   UNL     1     -12.671  10.387  70.919  1.00  0.00    -0.395 S  
HETATM   20  O   UNL     1     -13.659  10.259  69.869  1.00  0.00     0.274 OA 
HETATM   21  O   UNL     1     -13.084  10.750  72.259  1.00  0.00    -0.383 OA 
BRANCH  19  22
HETATM   22  C   UNL     1     -11.777   8.889  71.068  1.00  0.00    -0.289 A  
HETATM   23  C   UNL     1     -12.481   7.721  71.333  1.00  0.00    -0.320 A  
HETATM   24  F   UNL     1     -13.785   7.760  71.643  1.00  0.00    -0.354 F  
HETATM   25  C   UNL     1     -11.851   6.477  71.275  1.00  0.00    -0.385 A  
HETATM   26  C   UNL     1     -10.499   6.399  70.946  1.00  0.00    -0.275 A  
HETATM   27  C   UNL     1      -9.785   7.572  70.701  1.00  0.00    -0.175 A  
HETATM   28  C   UNL     1     -10.426   8.812  70.760  1.00  0.00    -0.219 A  
HETATM   29  F   UNL     1      -9.697   9.899  70.482  1.00  0.00    -0.297 F  
ENDBRANCH  19  22
ENDBRANCH  17  19
ENDBRANCH  15  17
ENDBRANCH   7  10
BRANCH   8  30
HETATM   30  C   UNL     1     -11.169  14.407  65.770  1.00  0.00    -0.326 A  
HETATM   31  C   UNL     1     -10.549  12.870  64.200  1.00  0.00    -0.416 A  
HETATM   32  N   UNL     1     -10.191  13.866  65.021  1.00  0.00    -0.377 NA 
HETATM   33  N   UNL     1      -9.581  12.288  63.414  1.00  0.00    -0.662 NA 
HETATM   34  N   UNL     1     -11.772  12.338  64.117  1.00  0.00    -0.372 NA 
HETATM   35  C   UNL     1     -12.715  12.876  64.900  1.00  0.00    -0.403 A  
HETATM   36  H2  UNL     1      -8.613  12.608  63.455  1.00  0.00     0.000 HD 
HETATM   37  C   UNL     1     -12.469  13.924  65.746  1.00  0.00    -0.530 A  
HETATM   38  H1  UNL     1      -9.854  11.530  62.788  1.00  0.00     0.000 HD 
ENDBRANCH   8  30
ENDBRANCH   2   5
TORSDOF 6
ENDMDL
