MODEL        8
REMARK 921   NORMALIZED FREE ENERGY PREDICTED BY IDOCK:   -5.06 KCAL/MOL
REMARK 922        TOTAL FREE ENERGY PREDICTED BY IDOCK:  -16.01 KCAL/MOL
REMARK 923 INTER-LIGAND FREE ENERGY PREDICTED BY IDOCK:  -12.61 KCAL/MOL
REMARK 924 INTRA-LIGAND FREE ENERGY PREDICTED BY IDOCK:   -3.40 KCAL/MOL
REMARK 927      BINDING AFFINITY PREDICTED BY RF-SCORE:    0.00 PKD
ROOT
HETATM    1  C   UNL     1     -10.118   4.282  71.812  1.00  0.00    -0.227 C  
HETATM    2  C   UNL     1     -10.302   5.054  70.517  1.00  0.00    -0.285 C  
ENDROOT
BRANCH   2   3
HETATM    3  C   UNL     1     -11.026   6.373  70.765  1.00  0.00    -0.346 C  
BRANCH   3   4
HETATM    4  C   UNL     1     -10.621   6.969  72.107  1.00  0.00    -0.240 C  
BRANCH   4   5
HETATM    5  C   UNL     1     -11.701   7.909  72.627  1.00  0.00    -0.398 C  
BRANCH   5   6
HETATM    6  C   UNL     1     -12.896   7.917  71.686  1.00  0.00    -0.357 C  
BRANCH   6   7
HETATM    7  C   UNL     1     -13.404   9.337  71.490  1.00  0.00    -0.436 C  
BRANCH   7   8
HETATM    8  C   UNL     1     -12.237  10.302  71.352  1.00  0.00    -0.481 C  
BRANCH   8   9
HETATM    9  C   UNL     1     -11.721  10.285  69.924  1.00  0.00    -0.298 C  
BRANCH   9  10
HETATM   10  C   UNL     1     -10.211  10.119  69.905  1.00  0.00    -0.284 C  
BRANCH  10  11
HETATM   11  C   UNL     1      -9.807   9.160  68.796  1.00  0.00    -0.175 C  
BRANCH  11  12
HETATM   12  C   UNL     1     -10.681   9.382  67.570  1.00  0.00    -0.290 C  
BRANCH  12  13
HETATM   13  C   UNL     1      -9.907   9.114  66.291  1.00  0.00    -0.359 C  
BRANCH  13  14
HETATM   14  C   UNL     1      -9.843  10.351  65.388  1.00  0.00    -0.347 C  
BRANCH  14  15
HETATM   15  C   UNL     1      -9.958  11.688  66.135  1.00  0.00    -0.252 C  
BRANCH  15  16
HETATM   16  C   UNL     1     -10.075  12.843  65.145  1.00  0.00    -0.223 C  
BRANCH  16  17
HETATM   17  N   UNL     1     -11.488  13.365  64.922  1.00  0.00    -0.315 N  
HETATM   18  C   UNL     1     -12.454  12.784  65.964  1.00  0.00    -0.005 C  
HETATM   19  C   UNL     1     -12.021  13.040  63.535  1.00  0.00    -0.545 C  
BRANCH  17  20
HETATM   20  C   UNL     1     -11.479  14.909  65.143  1.00  0.00    -0.357 C  
BRANCH  20  21
HETATM   21  C   UNL     1     -10.095  15.544  65.486  1.00  0.00    -0.373 C  
BRANCH  21  22
HETATM   22  N   UNL     1     -10.178  16.218  66.779  1.00  0.00    -0.274 NA 
BRANCH  22  23
HETATM   23  C   UNL     1      -9.649  15.568  67.985  1.00  0.00    -0.203 C  
BRANCH  23  24
HETATM   24  C   UNL     1     -10.706  15.346  69.049  1.00  0.00    -0.242 A  
HETATM   25  C   UNL     1     -10.877  16.280  70.078  1.00  0.00    -0.329 A  
HETATM   26  C   UNL     1     -12.477  14.827  71.187  1.00  0.00    -0.329 A  
HETATM   27  C   UNL     1     -12.388  13.934  70.122  1.00  0.00    -0.400 A  
HETATM   28  C   UNL     1     -11.505  14.191  69.060  1.00  0.00    -0.322 A  
HETATM   29  C   UNL     1     -11.745  16.014  71.139  1.00  0.00    -0.487 A  
BRANCH  26  30
HETATM   30  O   UNL     1     -13.176  14.649  72.346  1.00  0.00    -0.346 OA 
HETATM   31  C   UNL     1     -13.409  15.773  73.183  1.00  0.00    -0.587 C  
ENDBRANCH  26  30
ENDBRANCH  23  24
ENDBRANCH  22  23
BRANCH  22  32
HETATM   32  C   UNL     1     -10.003  17.592  66.743  1.00  0.00    -0.313 A  
HETATM   33  N   UNL     1     -10.887  18.373  67.392  1.00  0.00    -0.355 NA 
HETATM   34  N   UNL     1      -8.875  18.063  66.201  1.00  0.00    -0.493 NA 
HETATM   35  C   UNL     1      -8.639  19.384  66.308  1.00  0.00    -0.345 A  
HETATM   36  C   UNL     1     -10.639  19.705  67.419  1.00  0.00    -0.460 A  
HETATM   37  C   UNL     1      -9.505  20.268  66.899  1.00  0.00    -0.531 A  
ENDBRANCH  22  32
ENDBRANCH  21  22
ENDBRANCH  20  21
ENDBRANCH  17  20
ENDBRANCH  16  17
ENDBRANCH  15  16
ENDBRANCH  14  15
ENDBRANCH  13  14
ENDBRANCH  12  13
ENDBRANCH  11  12
ENDBRANCH  10  11
ENDBRANCH   9  10
ENDBRANCH   8   9
ENDBRANCH   7   8
ENDBRANCH   6   7
ENDBRANCH   5   6
ENDBRANCH   4   5
ENDBRANCH   3   4
ENDBRANCH   2   3
TORSDOF 22
ENDMDL
