MODEL      157
REMARK 921   NORMALIZED FREE ENERGY PREDICTED BY IDOCK:   -2.41 KCAL/MOL
REMARK 922        TOTAL FREE ENERGY PREDICTED BY IDOCK:   -2.77 KCAL/MOL
REMARK 923 INTER-LIGAND FREE ENERGY PREDICTED BY IDOCK:   -2.70 KCAL/MOL
REMARK 924 INTRA-LIGAND FREE ENERGY PREDICTED BY IDOCK:   -0.07 KCAL/MOL
REMARK 927      BINDING AFFINITY PREDICTED BY RF-SCORE:    0.00 PKD
ROOT
HETATM    1  C   UNL     1     -11.489  14.724  65.522  1.00  0.00    -0.329 C  
HETATM    2  O   UNL     1     -12.079  14.103  66.666  1.00  0.00    -0.429 OA 
ENDROOT
BRANCH   2   3
HETATM    3  C   UNL     1     -11.402  14.323  67.821  1.00  0.00    -0.307 C  
HETATM    4  O   UNL     1     -11.550  15.282  68.561  1.00  0.00    -0.328 OA 
BRANCH   3   5
HETATM    5  C   UNL     1     -10.419  13.236  68.077  1.00  0.00    -0.248 A  
HETATM    6  C   UNL     1      -9.057  13.526  67.900  1.00  0.00    -0.204 A  
HETATM    7  C   UNL     1      -8.090  12.537  68.095  1.00  0.00    -0.167 A  
HETATM    8  C   UNL     1      -8.490  11.258  68.469  1.00  0.00    -0.156 A  
HETATM    9  O   UNL     1      -7.584  10.256  68.650  1.00  0.00    -0.082 OA 
HETATM   10  C   UNL     1      -9.833  10.959  68.665  1.00  0.00    -0.194 A  
HETATM   11  C   UNL     1     -10.802  11.946  68.468  1.00  0.00    -0.257 A  
HETATM   12  H   UNL     1      -7.857   9.382  68.906  1.00  0.00     0.000 HD 
ENDBRANCH   3   5
ENDBRANCH   2   3
TORSDOF 2
ENDMDL
