MODEL      101
REMARK 921   NORMALIZED FREE ENERGY PREDICTED BY IDOCK:   -3.43 KCAL/MOL
REMARK 922        TOTAL FREE ENERGY PREDICTED BY IDOCK:   -7.39 KCAL/MOL
REMARK 923 INTER-LIGAND FREE ENERGY PREDICTED BY IDOCK:   -6.79 KCAL/MOL
REMARK 924 INTRA-LIGAND FREE ENERGY PREDICTED BY IDOCK:   -0.60 KCAL/MOL
REMARK 927      BINDING AFFINITY PREDICTED BY RF-SCORE:    0.00 PKD
ROOT
HETATM    1  C   UNL     1      -9.873   4.254  71.497  1.00  0.00    -0.260 C  
HETATM    2  C   UNL     1      -9.623   5.699  71.101  1.00  0.00    -0.168 C  
ENDROOT
BRANCH   2   3
HETATM    3  O   UNL     1     -10.688   6.118  70.259  1.00  0.00    -0.243 OA 
BRANCH   3   4
HETATM    4  C   UNL     1     -10.875   7.443  69.981  1.00  0.00    -0.252 A  
HETATM    5  C   UNL     1     -10.392   8.224  68.931  1.00  0.00    -0.215 A  
HETATM    6  C   UNL     1     -13.108  13.442  71.186  1.00  0.00    -0.178 C  
HETATM    7  C   UNL     1     -10.658   9.610  68.909  1.00  0.00    -0.239 A  
HETATM    8  C   UNL     1     -13.055  11.182  71.932  1.00  0.00    -0.408 A  
HETATM    9  C   UNL     1     -11.654   8.070  70.958  1.00  0.00    -0.303 A  
HETATM   10  C   UNL     1     -11.463  10.246  69.902  1.00  0.00    -0.340 A  
HETATM   11  N   UNL     1     -12.736   9.869  71.923  1.00  0.00    -0.408 NA 
HETATM   12  C   UNL     1     -11.812  11.652  69.939  1.00  0.00    -0.358 A  
HETATM   13  C   UNL     1     -11.961   9.422  70.939  1.00  0.00    -0.280 A  
HETATM   14  N   UNL     1     -13.530  14.493  71.439  1.00  0.00    -0.364 NA 
HETATM   15  C   UNL     1     -12.627  12.108  70.994  1.00  0.00    -0.359 A  
BRANCH   5  16
HETATM   16  N   UNL     1      -9.649   7.684  67.864  1.00  0.00    -0.142 N  
HETATM   17  C   UNL     1     -10.084   7.836  66.562  1.00  0.00    -0.154 C  
HETATM   18  H   UNL     1      -8.785   7.178  68.054  1.00  0.00     0.000 HD 
HETATM   19  O   UNL     1     -11.136   8.374  66.234  1.00  0.00     1.039 OA 
BRANCH  17  20
HETATM   20  C   UNL     1      -9.140   7.274  65.559  1.00  0.00     0.173 C  
HETATM   21  C   UNL     1      -7.845   7.138  65.891  1.00  0.00    -0.106 C  
BRANCH  21  22
HETATM   22  C   UNL     1      -6.742   6.543  65.065  1.00  0.00    -0.042 C  
BRANCH  22  23
HETATM   23  N   UNL     1      -6.342   7.283  63.859  1.00  0.00    -0.044 NA 
HETATM   24  C   UNL     1      -5.831   6.375  62.824  1.00  0.00    -0.027 C  
HETATM   25  C   UNL     1      -7.516   7.990  63.326  1.00  0.00    -0.118 C  
ENDBRANCH  22  23
ENDBRANCH  21  22
ENDBRANCH  17  20
ENDBRANCH   5  16
BRANCH  12  26
HETATM   26  N   UNL     1     -11.294  12.495  68.897  1.00  0.00    -0.277 NA 
HETATM   27  H   UNL     1     -11.740  12.355  67.990  1.00  0.00     0.000 HD 
BRANCH  26  28
HETATM   28  C   UNL     1     -10.281  13.480  68.896  1.00  0.00    -0.057 A  
HETATM   29 CL   UNL     1     -10.099  17.401  69.704  1.00  0.00     0.047 Cl 
HETATM   30  C   UNL     1      -8.935  13.173  68.674  1.00  0.00     0.048 A  
HETATM   31  C   UNL     1      -9.609  15.785  69.316  1.00  0.00    -0.270 A  
HETATM   32  C   UNL     1      -7.928  14.152  68.794  1.00  0.00    -0.102 A  
HETATM   33  C   UNL     1     -10.608  14.811  69.182  1.00  0.00    -0.251 A  
HETATM   34  C   UNL     1      -8.255  15.464  69.141  1.00  0.00    -0.243 A  
BRANCH  34  35
HETATM   35  O   UNL     1      -7.352  16.461  69.395  1.00  0.00    -0.233 OA 
BRANCH  35  36
HETATM   36  C   UNL     1      -6.320  16.718  68.443  1.00  0.00    -0.139 C  
BRANCH  36  37
HETATM   37  C   UNL     1      -6.404  18.168  68.001  1.00  0.00    -0.181 A  
HETATM   38  C   UNL     1      -7.145  18.522  66.873  1.00  0.00    -0.220 A  
HETATM   39  C   UNL     1      -7.197  19.859  66.488  1.00  0.00    -0.275 A  
HETATM   40  C   UNL     1      -6.514  20.811  67.234  1.00  0.00    -0.360 A  
HETATM   41  C   UNL     1      -5.799  20.381  68.338  1.00  0.00    -0.278 A  
HETATM   42  N   UNL     1      -5.719  19.088  68.729  1.00  0.00    -0.205 NA 
ENDBRANCH  36  37
ENDBRANCH  35  36
ENDBRANCH  34  35
ENDBRANCH  26  28
ENDBRANCH  12  26
ENDBRANCH   3   4
ENDBRANCH   2   3
TORSDOF 11
ENDMDL
