MODEL      426
REMARK 921   NORMALIZED FREE ENERGY PREDICTED BY IDOCK:   15.44 KCAL/MOL
REMARK 922        TOTAL FREE ENERGY PREDICTED BY IDOCK:   23.06 KCAL/MOL
REMARK 923 INTER-LIGAND FREE ENERGY PREDICTED BY IDOCK:   22.93 KCAL/MOL
REMARK 924 INTRA-LIGAND FREE ENERGY PREDICTED BY IDOCK:    0.13 KCAL/MOL
REMARK 927      BINDING AFFINITY PREDICTED BY RF-SCORE:    0.00 PKD
ROOT
HETATM    1  C   UNL     1     -12.569  18.621  64.836  1.00  0.00    10.761 C  
HETATM    2  C   UNL     1     -12.854  18.642  66.327  1.00  0.00     9.494 C  
ENDROOT
BRANCH   2   3
HETATM    3  O   UNL     1     -12.649  17.316  66.831  1.00  0.00     4.083 OA 
BRANCH   3   4
HETATM    4  C   UNL     1     -11.447  16.765  66.499  1.00  0.00     0.954 C  
HETATM    5  O   UNL     1     -10.594  17.298  65.806  1.00  0.00    -0.438 OA 
BRANCH   4   6
HETATM    6  C   UNL     1     -11.301  15.439  67.200  1.00  0.00    -0.203 C  
BRANCH   6   7
HETATM    7  C   UNL     1     -11.913  15.502  68.595  1.00  0.00    -0.231 C  
BRANCH   7   8
HETATM    8  C   UNL     1     -10.848  15.589  69.682  1.00  0.00    -0.285 C  
BRANCH   8   9
HETATM    9  C   UNL     1      -9.865  16.713  69.362  1.00  0.00    -0.124 C  
BRANCH   9  10
HETATM   10  C   UNL     1      -8.454  16.174  69.161  1.00  0.00    -0.239 C  
BRANCH  10  11
HETATM   11  C   UNL     1      -8.400  14.667  69.406  1.00  0.00     0.085 C  
BRANCH  11  12
HETATM   12  C   UNL     1      -7.092  14.091  68.874  1.00  0.00    -0.111 C  
BRANCH  12  13
HETATM   13  C   UNL     1      -7.176  12.579  68.651  1.00  0.00    -0.103 C  
HETATM   14  C   UNL     1      -6.822  12.180  67.203  1.00  0.00    -0.119 C  
HETATM   15  C   UNL     1      -7.091  10.693  66.976  1.00  0.00    -0.100 A  
HETATM   16  C   UNL     1      -5.385  12.589  66.833  1.00  0.00     0.270 C  
HETATM   17  C   UNL     1      -6.078   9.753  67.262  1.00  0.00    -0.055 A  
HETATM   18  C   UNL     1      -6.258   8.388  67.030  1.00  0.00    -0.056 A  
HETATM   19  C   UNL     1      -7.464   7.922  66.524  1.00  0.00    -0.088 A  
HETATM   20  C   UNL     1      -8.497   8.821  66.272  1.00  0.00    -0.130 A  
HETATM   21  C   UNL     1      -8.321  10.193  66.500  1.00  0.00    -0.124 A  
HETATM   22  I   UNL     1     -10.001  11.402  66.097  1.00  0.00    -0.308 I  
ENDBRANCH  12  13
ENDBRANCH  11  12
ENDBRANCH  10  11
ENDBRANCH   9  10
ENDBRANCH   8   9
ENDBRANCH   7   8
ENDBRANCH   6   7
ENDBRANCH   4   6
ENDBRANCH   3   4
ENDBRANCH   2   3
TORSDOF 10
ENDMDL
