MODEL        2
REMARK 921   NORMALIZED FREE ENERGY PREDICTED BY IDOCK:   -8.32 KCAL/MOL
REMARK 922        TOTAL FREE ENERGY PREDICTED BY IDOCK:  -10.91 KCAL/MOL
REMARK 923 INTER-LIGAND FREE ENERGY PREDICTED BY IDOCK:  -10.48 KCAL/MOL
REMARK 924 INTRA-LIGAND FREE ENERGY PREDICTED BY IDOCK:   -0.43 KCAL/MOL
REMARK 927      BINDING AFFINITY PREDICTED BY RF-SCORE:    0.00 PKD
ROOT
HETATM    1  O   UNL     1     -12.409  14.711  65.690  1.00  0.00    -0.271 OA 
HETATM    2  S   UNL     1     -11.842  13.441  64.878  1.00  0.00    -0.394 S  
HETATM    3  N   UNL     2     -11.082  16.374  68.798  1.00  0.00    -0.342 NA 
HETATM    4  H1  UNL     2     -11.367  16.821  67.926  1.00  0.00     0.000 HD 
HETATM    5  H2  UNL     2     -11.693  16.357  69.615  1.00  0.00     0.000 HD 
HETATM    6  C   UNL     2      -9.863  15.811  68.816  1.00  0.00    -0.214 C  
HETATM    7  N   UNL     3     -12.170  13.540  68.318  1.00  0.00    -0.313 NA 
HETATM    8  O   UNL     1     -12.733  12.267  65.510  1.00  0.00    -0.438 OA 
HETATM    9  O   UNL     1     -12.188  13.617  63.487  1.00  0.00    -0.618 OA 
HETATM   10  O   UNL     1     -10.489  13.236  65.316  1.00  0.00    -0.294 OA 
HETATM   11  C   UNL     3     -11.291  12.521  68.445  1.00  0.00    -0.291 C  
HETATM   12  H1  UNL     3     -13.149  13.407  68.061  1.00  0.00     0.000 HD 
HETATM   13  H2  UNL     3     -11.838  14.489  68.487  1.00  0.00     0.000 HD 
HETATM   14  N   UNL     2      -9.202  15.640  67.666  1.00  0.00    -0.193 NA 
HETATM   15  N   UNL     2      -9.506  15.249  69.914  1.00  0.00    -0.454 NA 
HETATM   16  H2  UNL     2     -10.116  15.231  70.731  1.00  0.00     0.000 HD 
HETATM   17  H   UNL     2      -8.384  15.034  67.721  1.00  0.00     0.000 HD 
HETATM   18  N   UNL     3     -10.065  12.686  68.766  1.00  0.00    -0.417 NA 
HETATM   19  N   UNL     3     -11.801  11.312  68.114  1.00  0.00    -0.607 NA 
HETATM   20  H2  UNL     3      -9.733  13.635  68.936  1.00  0.00     0.000 HD 
HETATM   21  H1  UNL     2      -8.579  14.820  69.928  1.00  0.00     0.000 HD 
HETATM   22  H1  UNL     3      -9.401  11.917  68.862  1.00  0.00     0.000 HD 
HETATM   23  H   UNL     3     -12.600  11.214  67.488  1.00  0.00     0.000 HD 
ENDROOT
BRANCH  14  24
HETATM   24  C   UNL     2      -9.475  16.190  66.350  1.00  0.00    -0.295 C  
BRANCH  24  25
HETATM   25  C   UNL     2      -9.360  17.705  66.376  1.00  0.00    -0.265 A  
HETATM   26  I   UNL     2      -6.293  20.656  67.324  1.00  0.00    -0.400 I  
HETATM   27  C   UNL     2     -10.460  18.514  66.041  1.00  0.00    -0.433 A  
HETATM   28  C   UNL     2      -8.149  18.331  66.728  1.00  0.00    -0.268 A  
HETATM   29  C   UNL     2     -10.383  19.901  66.122  1.00  0.00    -0.604 A  
HETATM   30  C   UNL     2      -8.074  19.724  66.785  1.00  0.00    -0.304 A  
HETATM   31  C   UNL     2      -9.189  20.511  66.494  1.00  0.00    -0.232 A  
ENDBRANCH  24  25
ENDBRANCH  14  24
BRANCH  19  32
HETATM   32  C   UNL     3     -11.137  10.160  68.710  1.00  0.00    -0.203 C  
BRANCH  32  33
HETATM   33  C   UNL     3     -11.603   9.884  70.110  1.00  0.00    -0.281 A  
HETATM   34  C   UNL     3     -12.632   8.998  72.573  1.00  0.00    -0.342 A  
HETATM   35  C   UNL     3     -10.865   9.018  70.916  1.00  0.00    -0.323 A  
HETATM   36  I   UNL     3     -10.328   7.139  73.210  1.00  0.00    -0.423 I  
HETATM   37  C   UNL     3     -13.351   9.917  71.812  1.00  0.00    -0.501 A  
HETATM   38  C   UNL     3     -11.387   8.559  72.125  1.00  0.00    -0.372 A  
HETATM   39  C   UNL     3     -12.846  10.354  70.584  1.00  0.00    -0.393 A  
ENDBRANCH  32  33
ENDBRANCH  19  32
TORSDOF 4
ENDMDL
