MODEL      125
REMARK 921   NORMALIZED FREE ENERGY PREDICTED BY IDOCK:   -1.53 KCAL/MOL
REMARK 922        TOTAL FREE ENERGY PREDICTED BY IDOCK:   -1.74 KCAL/MOL
REMARK 923 INTER-LIGAND FREE ENERGY PREDICTED BY IDOCK:   -1.69 KCAL/MOL
REMARK 924 INTRA-LIGAND FREE ENERGY PREDICTED BY IDOCK:   -0.05 KCAL/MOL
REMARK 927      BINDING AFFINITY PREDICTED BY RF-SCORE:    0.00 PKD
ROOT
HETATM    1  C   UNL     1      -8.355  13.401  68.060  1.00  0.00    -0.165 C  
HETATM    2  N   UNL     1      -9.833  13.223  67.716  1.00  0.00    -0.218 N  
HETATM    3  C   UNL     1     -10.364  12.005  68.455  1.00  0.00    -0.217 C  
HETATM    4  C   UNL     1      -9.947  12.983  66.210  1.00  0.00    -0.283 C  
ENDROOT
BRANCH   2   5
HETATM    5  C   UNL     1     -10.577  14.513  68.145  1.00  0.00    -0.238 C  
BRANCH   5   6
HETATM    6  C   UNL     1     -11.279  15.268  67.005  1.00  0.00    -0.275 C  
HETATM    7  O   UNL     1     -10.523  16.409  66.616  1.00  0.00    -0.295 OA 
HETATM    8  H   UNL     1     -10.957  16.876  65.912  1.00  0.00     0.000 HD 
ENDBRANCH   5   6
ENDBRANCH   2   5
TORSDOF 2
ENDMDL
