MODEL       19
REMARK 921   NORMALIZED FREE ENERGY PREDICTED BY IDOCK:   -5.33 KCAL/MOL
REMARK 922        TOTAL FREE ENERGY PREDICTED BY IDOCK:   -5.94 KCAL/MOL
REMARK 923 INTER-LIGAND FREE ENERGY PREDICTED BY IDOCK:   -5.54 KCAL/MOL
REMARK 924 INTRA-LIGAND FREE ENERGY PREDICTED BY IDOCK:   -0.39 KCAL/MOL
REMARK 927      BINDING AFFINITY PREDICTED BY RF-SCORE:    0.00 PKD
ROOT
HETATM    1  C   UNL     1     -11.480  15.785  70.845  1.00  0.00    -0.438 C  
HETATM    2  C   UNL     1     -11.328  15.607  69.365  1.00  0.00    -0.332 C  
HETATM    3  C   UNL     1     -11.722  14.483  68.744  1.00  0.00    -0.362 C  
HETATM    4  C   UNL     1     -11.571  14.364  67.277  1.00  0.00    -0.379 C  
HETATM    5  O   UNL     1     -11.905  13.338  66.689  1.00  0.00    -0.360 OA 
HETATM    6  N   UNL     1     -11.033  15.466  66.641  1.00  0.00    -0.304 N  
HETATM    7  O   UNL     1     -10.909  15.349  65.247  1.00  0.00    -0.358 OA 
HETATM    8  C   UNL     1     -10.582  16.617  67.249  1.00  0.00    -0.281 C  
HETATM    9  C   UNL     1     -10.726  16.689  68.595  1.00  0.00    -0.349 C  
ENDROOT
BRANCH   8  10
HETATM   10  C   UNL     1      -9.912  17.766  66.483  1.00  0.00    -0.346 C  
HETATM   11  C   UNL     1     -10.550  19.180  66.524  1.00  0.00    -0.523 C  
HETATM   12  C   UNL     1      -9.904  20.209  67.461  1.00  0.00    -0.574 C  
HETATM   13  C   UNL     1      -8.385  20.167  67.432  1.00  0.00    -0.390 C  
HETATM   14  C   UNL     1      -7.887  18.759  67.725  1.00  0.00    -0.262 C  
HETATM   15  C   UNL     1      -8.380  17.787  66.664  1.00  0.00    -0.285 C  
ENDBRANCH   8  10
TORSDOF 1
ENDMDL
