MODEL       72
REMARK 921   NORMALIZED FREE ENERGY PREDICTED BY IDOCK:   -5.40 KCAL/MOL
REMARK 922        TOTAL FREE ENERGY PREDICTED BY IDOCK:   -9.46 KCAL/MOL
REMARK 923 INTER-LIGAND FREE ENERGY PREDICTED BY IDOCK:   -9.23 KCAL/MOL
REMARK 924 INTRA-LIGAND FREE ENERGY PREDICTED BY IDOCK:   -0.23 KCAL/MOL
REMARK 927      BINDING AFFINITY PREDICTED BY RF-SCORE:    0.00 PKD
ROOT
HETATM    1  C   UNL     1      -6.304  17.934  65.994  1.00  0.00    -0.253 C  
HETATM    2  O   UNL     1      -7.669  18.194  65.664  1.00  0.00    -0.532 OA 
ENDROOT
BRANCH   2   3
HETATM    3  C   UNL     1      -8.592  17.498  66.400  1.00  0.00    -0.240 A  
HETATM    4  C   UNL     1      -8.920  16.168  66.085  1.00  0.00    -0.372 A  
HETATM    5  C   UNL     1      -9.930  15.472  66.730  1.00  0.00    -0.249 A  
HETATM    6  C   UNL     1     -10.601  16.099  67.771  1.00  0.00    -0.309 A  
HETATM    7  C   UNL     1     -10.204  17.394  68.181  1.00  0.00    -0.350 A  
HETATM    8  C   UNL     1     -11.646  15.356  68.317  1.00  0.00    -0.348 A  
HETATM    9  N   UNL     1     -12.383  15.817  69.413  1.00  0.00    -0.514 NA 
HETATM   10  N   UNL     1     -12.007  14.151  67.856  1.00  0.00    -0.363 NA 
HETATM   11  C   UNL     1      -9.212  18.107  67.497  1.00  0.00    -0.257 A  
HETATM   12  N   UNL     1     -10.236  14.243  66.308  1.00  0.00    -0.291 NA 
HETATM   13  H2  UNL     1     -12.745  16.742  69.178  1.00  0.00     0.000 HD 
HETATM   14  C   UNL     1     -11.287  13.620  66.859  1.00  0.00    -0.327 A  
HETATM   15  H1  UNL     1     -13.147  15.273  69.812  1.00  0.00     0.000 HD 
BRANCH  11  16
HETATM   16  O   UNL     1      -9.014  19.351  68.027  1.00  0.00    -0.305 OA 
HETATM   17  C   UNL     1      -9.861  20.419  67.635  1.00  0.00    -0.398 C  
ENDBRANCH  11  16
BRANCH  14  18
HETATM   18  N   UNL     1     -11.624  12.368  66.405  1.00  0.00    -0.373 NA 
HETATM   19  C   UNL     1     -12.264  12.229  65.116  1.00  0.00    -0.276 C  
BRANCH  18  20
HETATM   20  C   UNL     1     -11.187  11.184  67.126  1.00  0.00    -0.249 C  
BRANCH  20  21
HETATM   21  C   UNL     1     -10.818  11.510  68.580  1.00  0.00    -0.254 C  
BRANCH  21  22
HETATM   22  C   UNL     1     -11.970  11.243  69.549  1.00  0.00    -0.351 C  
BRANCH  22  23
HETATM   23  N   UNL     1     -11.720  10.088  70.387  1.00  0.00    -0.284 N  
HETATM   24  C   UNL     1     -12.507   9.777  71.471  1.00  0.00    -0.403 C  
HETATM   25  H   UNL     1     -10.931   9.483  70.164  1.00  0.00     0.000 HD 
HETATM   26  O   UNL     1     -13.460  10.461  71.830  1.00  0.00    -0.372 OA 
BRANCH  24  27
HETATM   27  C   UNL     1     -12.092   8.496  72.206  1.00  0.00    -0.387 C  
HETATM   28  C   UNL     1     -12.874   7.311  71.670  1.00  0.00    -0.415 C  
HETATM   29  C   UNL     1     -12.010   6.148  72.079  1.00  0.00    -0.310 C  
HETATM   30  C   UNL     1     -10.611   6.714  71.953  1.00  0.00    -0.211 C  
HETATM   31  O   UNL     1     -10.706   8.143  72.077  1.00  0.00    -0.239 OA 
ENDBRANCH  24  27
ENDBRANCH  22  23
ENDBRANCH  21  22
ENDBRANCH  20  21
ENDBRANCH  18  20
ENDBRANCH  14  18
ENDBRANCH   2   3
TORSDOF 8
ENDMDL
