MODEL       47
REMARK 921   NORMALIZED FREE ENERGY PREDICTED BY IDOCK:   -5.74 KCAL/MOL
REMARK 922        TOTAL FREE ENERGY PREDICTED BY IDOCK:  -12.93 KCAL/MOL
REMARK 923 INTER-LIGAND FREE ENERGY PREDICTED BY IDOCK:  -11.45 KCAL/MOL
REMARK 924 INTRA-LIGAND FREE ENERGY PREDICTED BY IDOCK:   -1.49 KCAL/MOL
REMARK 927      BINDING AFFINITY PREDICTED BY RF-SCORE:    0.00 PKD
ROOT
HETATM    1  C   UNL     1      -6.465  17.823  66.139  1.00  0.00    -0.295 C  
HETATM    2  C   UNL     1      -7.185  19.167  66.117  1.00  0.00    -0.262 C  
HETATM    3  C   UNL     1      -6.466  20.152  65.203  1.00  0.00    -0.324 C  
ENDROOT
BRANCH   2   4
HETATM    4  O   UNL     1      -8.516  18.988  65.600  1.00  0.00    -0.339 OA 
BRANCH   4   5
HETATM    5  C   UNL     1      -9.501  19.640  66.278  1.00  0.00    -0.396 C  
HETATM    6  O   UNL     1     -10.599  19.931  65.827  1.00  0.00    -0.507 OA 
BRANCH   5   7
HETATM    7  C   UNL     1      -9.024  20.000  67.661  1.00  0.00    -0.420 C  
BRANCH   7   8
HETATM    8  C   UNL     1      -9.849  19.275  68.722  1.00  0.00    -0.514 C  
BRANCH   8   9
HETATM    9  C   UNL     1      -9.561  17.776  68.692  1.00  0.00    -0.322 C  
BRANCH   9  10
HETATM   10  C   UNL     1     -10.751  16.966  69.113  1.00  0.00    -0.298 C  
HETATM   11  C   UNL     1     -11.312  15.968  68.413  1.00  0.00    -0.355 C  
BRANCH  11  12
HETATM   12  C   UNL     1     -10.864  15.463  67.067  1.00  0.00    -0.320 C  
BRANCH  12  13
HETATM   13  C   UNL     1     -11.674  14.232  66.644  1.00  0.00    -0.417 C  
HETATM   14  C   UNL     1     -11.786  14.034  65.127  1.00  0.00    -0.365 C  
HETATM   15  C   UNL     1     -12.209  12.577  65.005  1.00  0.00    -0.519 C  
HETATM   16  O   UNL     1     -10.525  14.191  64.479  1.00  0.00    -0.563 OA 
HETATM   17  C   UNL     1     -11.319  11.870  66.026  1.00  0.00    -0.316 C  
HETATM   18  H   UNL     1     -10.595  14.067  63.539  1.00  0.00     0.000 HD 
HETATM   19  C   UNL     1     -11.063  12.900  67.157  1.00  0.00    -0.309 C  
HETATM   20  O   UNL     1     -10.080  11.506  65.414  1.00  0.00    -0.237 OA 
HETATM   21  H   UNL     1      -9.527  11.065  66.049  1.00  0.00     0.000 HD 
BRANCH  19  22
HETATM   22  C   UNL     1     -11.616  12.435  68.490  1.00  0.00    -0.358 C  
HETATM   23  C   UNL     1     -11.601  11.163  68.931  1.00  0.00    -0.385 C  
BRANCH  23  24
HETATM   24  C   UNL     1     -12.037  10.720  70.306  1.00  0.00    -0.348 C  
HETATM   25  F   UNL     1     -13.274  10.155  70.239  1.00  0.00    -0.304 F  
HETATM   26  F   UNL     1     -12.153  11.809  71.115  1.00  0.00    -0.401 F  
BRANCH  24  27
HETATM   27  C   UNL     1     -11.050   9.720  70.929  1.00  0.00    -0.357 C  
BRANCH  27  28
HETATM   28  O   UNL     1     -11.518   8.373  70.767  1.00  0.00    -0.273 OA 
BRANCH  28  29
HETATM   29  C   UNL     1     -11.183   7.510  71.775  1.00  0.00    -0.246 A  
HETATM   30  C   UNL     1     -11.718   6.225  71.669  1.00  0.00    -0.342 A  
HETATM   31  C   UNL     1     -11.440   5.260  72.640  1.00  0.00    -0.270 A  
HETATM   32  C   UNL     1     -10.612   5.574  73.715  1.00  0.00    -0.316 A  
HETATM   33  C   UNL     1     -10.058   6.849  73.816  1.00  0.00    -0.373 A  
HETATM   34  C   UNL     1     -10.340   7.817  72.847  1.00  0.00    -0.396 A  
ENDBRANCH  28  29
ENDBRANCH  27  28
ENDBRANCH  24  27
ENDBRANCH  23  24
ENDBRANCH  19  22
ENDBRANCH  12  13
ENDBRANCH  11  12
ENDBRANCH   9  10
ENDBRANCH   8   9
ENDBRANCH   7   8
ENDBRANCH   5   7
ENDBRANCH   4   5
ENDBRANCH   2   4
TORSDOF 13
ENDMDL
