MODEL       17
REMARK 921   NORMALIZED FREE ENERGY PREDICTED BY IDOCK:   -5.61 KCAL/MOL
REMARK 922        TOTAL FREE ENERGY PREDICTED BY IDOCK:  -14.72 KCAL/MOL
REMARK 923 INTER-LIGAND FREE ENERGY PREDICTED BY IDOCK:  -12.02 KCAL/MOL
REMARK 924 INTRA-LIGAND FREE ENERGY PREDICTED BY IDOCK:   -2.70 KCAL/MOL
REMARK 927      BINDING AFFINITY PREDICTED BY RF-SCORE:    0.00 PKD
ROOT
HETATM    1  C   UNL     1     -10.291   2.379  72.252  1.00  0.00    -0.156 C  
HETATM    2  C   UNL     1     -10.755   3.011  73.554  1.00  0.00    -0.297 C  
ENDROOT
BRANCH   2   3
HETATM    3  C   UNL     1     -10.967   4.504  73.364  1.00  0.00    -0.382 C  
BRANCH   3   4
HETATM    4  C   UNL     1      -9.854   5.143  72.542  1.00  0.00    -0.197 C  
BRANCH   4   5
HETATM    5  C   UNL     1      -9.565   6.522  73.115  1.00  0.00    -0.164 C  
BRANCH   5   6
HETATM    6  C   UNL     1     -10.822   7.319  73.364  1.00  0.00    -0.324 C  
BRANCH   6   7
HETATM    7  O   UNL     1     -10.802   8.450  72.479  1.00  0.00    -0.344 OA 
BRANCH   7   8
HETATM    8  C   UNL     1     -11.995   8.765  71.904  1.00  0.00    -0.365 C  
HETATM    9  N   UNL     1     -11.943   8.834  70.544  1.00  0.00    -0.473 N  
HETATM   10  O   UNL     1     -13.017   8.978  72.547  1.00  0.00    -0.418 OA 
HETATM   11  H   UNL     1     -12.341   9.649  70.077  1.00  0.00     0.000 HD 
BRANCH   9  12
HETATM   12  C   UNL     1     -11.403   7.895  69.819  1.00  0.00     0.112 C  
HETATM   13  H1  UNL     1     -11.414   5.888  69.526  1.00  0.00     0.000 HD 
HETATM   14  N   UNL     1     -11.836   6.623  70.094  1.00  0.00    -0.605 NA 
HETATM   15  H2  UNL     1     -12.530   6.425  70.815  1.00  0.00     0.000 HD 
BRANCH  12  16
HETATM   16  C   UNL     1     -10.428   8.088  68.700  1.00  0.00    -0.196 A  
HETATM   17  C   UNL     1      -9.493   9.124  68.711  1.00  0.00    -0.147 A  
HETATM   18  C   UNL     1      -8.918   9.541  67.506  1.00  0.00    -0.133 A  
HETATM   19  C   UNL     1      -9.180   8.862  66.309  1.00  0.00    -0.207 A  
HETATM   20  C   UNL     1      -9.983   7.720  66.353  1.00  0.00    -0.164 A  
HETATM   21  C   UNL     1     -10.615   7.338  67.536  1.00  0.00    -0.344 A  
BRANCH  19  22
HETATM   22  N   UNL     1      -8.829   9.496  65.103  1.00  0.00    -0.174 NA 
HETATM   23  H   UNL     1      -7.878   9.455  64.736  1.00  0.00     0.000 HD 
BRANCH  22  24
HETATM   24  C   UNL     1      -9.887  10.218  64.399  1.00  0.00    -0.305 C  
BRANCH  24  25
HETATM   25  C   UNL     1     -10.122  11.674  64.751  1.00  0.00    -0.260 A  
HETATM   26  N   UNL     1      -9.421  12.465  65.554  1.00  0.00    -0.062 NA 
HETATM   27  C   UNL     1     -10.006  13.722  65.477  1.00  0.00    -0.238 A  
HETATM   28  C   UNL     1     -11.086  13.686  64.599  1.00  0.00    -0.381 A  
HETATM   29  N   UNL     1     -11.177  12.372  64.204  1.00  0.00    -0.346 NA 
HETATM   30  C   UNL     1     -11.822  14.822  64.260  1.00  0.00    -0.335 A  
HETATM   31  C   UNL     1     -11.459  16.030  64.866  1.00  0.00    -0.125 A  
HETATM   32  C   UNL     1     -12.185  11.812  63.331  1.00  0.00    -0.348 C  
HETATM   33  C   UNL     1     -10.435  16.111  65.821  1.00  0.00    -0.384 A  
HETATM   34  C   UNL     1      -9.674  14.953  66.111  1.00  0.00    -0.333 A  
BRANCH  33  35
HETATM   35  C   UNL     1     -10.222  17.490  66.414  1.00  0.00    -0.354 C  
HETATM   36  N   UNL     1     -10.434  17.762  67.774  1.00  0.00    -0.384 N  
HETATM   37  O   UNL     1      -9.906  18.384  65.625  1.00  0.00    -0.440 OA 
BRANCH  36  38
HETATM   38  C   UNL     1     -10.734  16.753  68.703  1.00  0.00    -0.352 A  
HETATM   39  C   UNL     1     -11.340  14.898  70.614  1.00  0.00    -0.275 A  
HETATM   40  N   UNL     1     -12.028  16.382  68.848  1.00  0.00     0.021 NA 
HETATM   41  C   UNL     1     -10.014  15.256  70.412  1.00  0.00     0.203 A  
HETATM   42  C   UNL     1     -12.306  15.478  69.812  1.00  0.00    -0.232 A  
HETATM   43  C   UNL     1      -9.701  16.193  69.446  1.00  0.00    -0.219 A  
ENDBRANCH  36  38
BRANCH  36  44
HETATM   44  C   UNL     1     -10.055  19.060  68.360  1.00  0.00    -0.403 C  
BRANCH  44  45
HETATM   45  C   UNL     1      -8.577  19.293  68.706  1.00  0.00    -0.375 C  
BRANCH  45  46
HETATM   46  C   UNL     1      -7.670  19.976  67.696  1.00  0.00    -0.294 C  
HETATM   47  O   UNL     1      -7.973  20.865  66.918  1.00  0.00    -0.176 OA 
BRANCH  46  48
HETATM   48  O   UNL     1      -6.431  19.391  67.791  1.00  0.00    -0.216 OA 
BRANCH  48  49
HETATM   49  C   UNL     1      -6.327  17.963  67.948  1.00  0.00    -0.178 C  
HETATM   50  C   UNL     1      -6.287  17.270  66.599  1.00  0.00    -0.249 C  
ENDBRANCH  48  49
ENDBRANCH  46  48
ENDBRANCH  45  46
ENDBRANCH  44  45
ENDBRANCH  36  44
ENDBRANCH  33  35
ENDBRANCH  24  25
ENDBRANCH  22  24
ENDBRANCH  19  22
ENDBRANCH  12  16
ENDBRANCH   9  12
ENDBRANCH   7   8
ENDBRANCH   6   7
ENDBRANCH   5   6
ENDBRANCH   4   5
ENDBRANCH   3   4
ENDBRANCH   2   3
TORSDOF 18
ENDMDL
