MODEL      302
REMARK 921   NORMALIZED FREE ENERGY PREDICTED BY IDOCK:   40.80 KCAL/MOL
REMARK 922        TOTAL FREE ENERGY PREDICTED BY IDOCK:   63.97 KCAL/MOL
REMARK 923 INTER-LIGAND FREE ENERGY PREDICTED BY IDOCK:   41.00 KCAL/MOL
REMARK 924 INTRA-LIGAND FREE ENERGY PREDICTED BY IDOCK:   22.98 KCAL/MOL
REMARK 927      BINDING AFFINITY PREDICTED BY RF-SCORE:    0.00 PKD
ROOT
HETATM    1  C   UNL     1      -5.550  18.877  63.249  1.00  0.00     0.093 C  
HETATM    2  O   UNL     1      -6.292  19.926  63.880  1.00  0.00    -0.291 OA 
ENDROOT
BRANCH   2   3
HETATM    3  C   UNL     1      -6.340  19.855  65.247  1.00  0.00    -0.261 A  
HETATM    4  C   UNL     1      -7.394  19.123  65.811  1.00  0.00    -0.218 A  
HETATM    5  F   UNL     1      -8.298  18.539  65.005  1.00  0.00     1.106 F  
HETATM    6  C   UNL     1      -7.511  18.979  67.200  1.00  0.00    -0.240 A  
HETATM    7  C   UNL     1      -6.572  19.607  68.031  1.00  0.00    -0.283 A  
HETATM    8  C   UNL     1      -5.421  20.493  66.088  1.00  0.00    -0.211 A  
HETATM    9  C   UNL     1      -5.537  20.362  67.473  1.00  0.00    -0.213 A  
BRANCH   6  10
HETATM   10  C   UNL     1      -8.569  18.131  67.789  1.00  0.00    -0.258 C  
HETATM   11  C   UNL     1      -9.448  19.983  69.241  1.00  0.00     0.065 C  
HETATM   12  C   UNL     1      -9.451  18.561  68.718  1.00  0.00    -0.305 C  
HETATM   13  N   UNL     1     -10.442  17.692  69.192  1.00  0.00    -0.256 N  
HETATM   14  C   UNL     1     -10.739  16.491  68.542  1.00  0.00    -0.336 C  
HETATM   15  C   UNL     1      -8.618  16.694  67.381  1.00  0.00    -0.189 C  
HETATM   16  O   UNL     1     -11.817  15.912  68.697  1.00  0.00    -0.388 OA 
HETATM   17  O   UNL     1      -7.674  16.190  66.771  1.00  0.00    -0.225 OA 
HETATM   18  N   UNL     1      -9.757  15.993  67.711  1.00  0.00    -0.220 N  
BRANCH  13  19
HETATM   19  C   UNL     1     -11.332  18.042  70.306  1.00  0.00     3.386 C  
BRANCH  19  20
HETATM   20  C   UNL     1     -10.683  18.560  71.584  1.00  0.00     3.277 A  
HETATM   21  F   UNL     1      -7.764  19.707  70.005  1.00  0.00    -0.111 F  
HETATM   22  C   UNL     1      -8.256  18.600  70.624  1.00  0.00     3.794 C  
HETATM   23  C   UNL     1      -9.319  18.939  71.652  1.00  0.00     6.061 A  
HETATM   24  F   UNL     1     -12.771  18.455  72.730  1.00  0.00     5.512 F  
HETATM   25  C   UNL     1      -8.868  19.688  72.768  1.00  0.00     4.357 A  
HETATM   26  C   UNL     1     -11.494  18.856  72.697  1.00  0.00     5.445 A  
HETATM   27  F   UNL     1      -7.182  17.994  71.206  1.00  0.00     3.018 F  
HETATM   28  F   UNL     1      -8.639  17.757  69.633  1.00  0.00     0.264 F  
HETATM   29  C   UNL     1     -11.022  19.561  73.804  1.00  0.00     4.945 A  
HETATM   30  C   UNL     1      -9.713  20.009  73.826  1.00  0.00     5.511 A  
ENDBRANCH  19  20
ENDBRANCH  13  19
BRANCH  18  31
HETATM   31  C   UNL     1      -9.926  14.637  67.174  1.00  0.00    -0.240 C  
BRANCH  31  32
HETATM   32  C   UNL     1      -9.822  13.485  68.225  1.00  0.00    -0.233 C  
BRANCH  32  33
HETATM   33  N   UNL     1     -10.022  12.123  67.659  1.00  0.00    -0.194 NA 
HETATM   34  H   UNL     1     -10.140  12.176  66.648  1.00  0.00     0.000 HD 
BRANCH  33  35
HETATM   35  C   UNL     1      -8.982  11.156  67.995  1.00  0.00    -0.149 C  
BRANCH  35  36
HETATM   36  C   UNL     1      -9.521  10.092  68.964  1.00  0.00    -0.190 C  
BRANCH  36  37
HETATM   37  C   UNL     1      -9.870   8.772  68.275  1.00  0.00    -0.185 C  
HETATM   38  O   UNL     1     -10.522   8.667  65.957  1.00  0.00     0.181 OA 
HETATM   39  C   UNL     1      -9.638   8.814  66.787  1.00  0.00    -0.206 C  
HETATM   40  O   UNL     1      -8.342   8.978  66.444  1.00  0.00    -0.112 OA 
ENDBRANCH  36  37
ENDBRANCH  35  36
ENDBRANCH  33  35
ENDBRANCH  32  33
BRANCH  32  41
HETATM   41  C   UNL     1     -10.818  13.653  69.377  1.00  0.00    -0.054 A  
HETATM   42  C   UNL     1     -11.423  14.692  71.494  1.00  0.00    -0.072 A  
HETATM   43  C   UNL     1     -12.864  13.012  70.546  1.00  0.00     0.009 A  
HETATM   44  C   UNL     1     -10.550  14.562  70.411  1.00  0.00     0.377 A  
HETATM   45  C   UNL     1     -11.998  12.888  69.456  1.00  0.00    -0.346 A  
HETATM   46  C   UNL     1     -12.578  13.916  71.564  1.00  0.00    -0.419 A  
ENDBRANCH  32  41
ENDBRANCH  31  32
ENDBRANCH  18  31
ENDBRANCH   6  10
ENDBRANCH   2   3
TORSDOF 11
ENDMDL
