MODEL      124
REMARK 921   NORMALIZED FREE ENERGY PREDICTED BY IDOCK:    8.78 KCAL/MOL
REMARK 922        TOTAL FREE ENERGY PREDICTED BY IDOCK:    9.03 KCAL/MOL
REMARK 923 INTER-LIGAND FREE ENERGY PREDICTED BY IDOCK:    1.05 KCAL/MOL
REMARK 924 INTRA-LIGAND FREE ENERGY PREDICTED BY IDOCK:    7.98 KCAL/MOL
REMARK 927      BINDING AFFINITY PREDICTED BY RF-SCORE:    0.00 PKD
ROOT
HETATM    1  C   UNL     1     -12.151  14.640  65.416  1.00  0.00    -0.250 C  
HETATM    2  C   UNL     1     -11.897  13.154  65.751  1.00  0.00    -0.397 C  
HETATM    3  N   UNL     1     -10.517  13.137  66.292  1.00  0.00    -0.280 NA 
HETATM    4  H   UNL     1     -14.076  14.643  64.583  1.00  0.00     0.000 HD 
HETATM    5  C   UNL     1      -9.894  14.467  66.085  1.00  0.00    -0.320 C  
HETATM    6  C   UNL     1     -10.754  15.110  64.998  1.00  0.00    -0.430 C  
HETATM    7  N   UNL     1     -13.138  14.980  64.372  1.00  0.00    -0.039 NA 
HETATM    8  O   UNL     1     -10.713  16.537  64.961  1.00  0.00    -0.662 OA 
HETATM    9  C   UNL     1     -13.077  16.450  64.177  1.00  0.00     3.587 C  
HETATM   10  C   UNL     1     -11.648  17.012  63.973  1.00  0.00     2.105 C  
ENDROOT
BRANCH   3  11
HETATM   11  C   UNL     1     -10.014  12.200  67.197  1.00  0.00    -0.200 A  
HETATM   12  C   UNL     1      -9.134  10.312  69.139  1.00  0.00    -0.199 A  
HETATM   13  C   UNL     1      -8.758   9.351  70.203  1.00  0.00    -0.221 C  
HETATM   14  C   UNL     1     -10.470  10.361  68.769  1.00  0.00    -0.219 A  
HETATM   15  C   UNL     1      -7.358   9.302  70.646  1.00  0.00    -0.129 C  
HETATM   16  C   UNL     1     -10.884  11.275  67.814  1.00  0.00    -0.235 A  
HETATM   17  O   UNL     1      -9.591   8.622  70.736  1.00  0.00    -0.167 OA 
HETATM   18  C   UNL     1      -6.507  10.117  70.013  1.00  0.00    -0.106 C  
HETATM   19  C   UNL     1      -6.849   8.378  71.681  1.00  0.00    -0.076 C  
HETATM   20  F   UNL     1     -12.188  11.232  67.504  1.00  0.00    -0.132 F  
HETATM   21  N   UNL     1      -6.803  10.976  68.962  1.00  0.00    -0.075 NA 
HETATM   22  O   UNL     1      -5.669   8.298  71.987  1.00  0.00    -0.036 OA 
HETATM   23  O   UNL     1      -7.795   7.607  72.257  1.00  0.00    -0.092 OA 
HETATM   24  N   UNL     1      -7.044  14.070  66.928  1.00  0.00     0.316 NA 
HETATM   25  C   UNL     1      -8.169  11.156  68.547  1.00  0.00    -0.149 A  
HETATM   26  C   UNL     1      -8.641  12.140  67.617  1.00  0.00    -0.166 A  
HETATM   27  C   UNL     1      -7.753  13.200  67.227  1.00  0.00    -0.098 C  
BRANCH  21  28
HETATM   28  C   UNL     1      -5.633  11.407  68.158  1.00  0.00    -0.042 C  
HETATM   29  C   UNL     1      -5.775  11.704  66.675  1.00  0.00    -0.115 C  
HETATM   30  C   UNL     1      -5.476  12.813  67.630  1.00  0.00    -0.121 C  
ENDBRANCH  21  28
ENDBRANCH   3  11
TORSDOF 2
ENDMDL
