MODEL      143
REMARK 921   NORMALIZED FREE ENERGY PREDICTED BY IDOCK:   -4.58 KCAL/MOL
REMARK 922        TOTAL FREE ENERGY PREDICTED BY IDOCK:   -8.82 KCAL/MOL
REMARK 923 INTER-LIGAND FREE ENERGY PREDICTED BY IDOCK:   -7.86 KCAL/MOL
REMARK 924 INTRA-LIGAND FREE ENERGY PREDICTED BY IDOCK:   -0.96 KCAL/MOL
REMARK 927      BINDING AFFINITY PREDICTED BY RF-SCORE:    0.00 PKD
ROOT
HETATM    1 FE   UNL     1     -10.469   8.075  65.573  1.00  0.00    -0.365 Fe 
HETATM    2  C   UNL     2     -11.638  14.770  65.565  1.00  0.00    -0.301 C  
HETATM    3  C   UNL     3      -8.548   8.183  71.640  1.00  0.00    -0.140 C  
HETATM    4  H   UNL     3     -10.175   8.372  72.694  1.00  0.00     0.000 HD 
HETATM    5  H   UNL     2     -13.109  13.450  65.591  1.00  0.00     0.000 HD 
HETATM    6  O   UNL     2     -12.764  14.100  64.989  1.00  0.00    -0.631 OA 
HETATM    7  O   UNL     3      -9.427   8.929  72.510  1.00  0.00    -0.287 OA 
ENDROOT
BRANCH   2   8
HETATM    8  C   UNL     2     -11.083  15.816  64.595  1.00  0.00    -0.361 C  
HETATM    9  H   UNL     2     -10.371  17.664  64.677  1.00  0.00     0.000 HD 
HETATM   10  O   UNL     2     -10.716  17.015  65.279  1.00  0.00    -0.616 OA 
ENDBRANCH   2   8
BRANCH   2  11
HETATM   11  C   UNL     2     -10.576  13.735  65.985  1.00  0.00    -0.290 C  
HETATM   12  H   UNL     2      -9.223  13.525  67.422  1.00  0.00     0.000 HD 
HETATM   13  O   UNL     2      -9.877  14.162  67.163  1.00  0.00    -0.243 OA 
BRANCH  11  14
HETATM   14  C   UNL     2     -11.240  12.372  66.243  1.00  0.00    -0.317 C  
HETATM   15  H   UNL     2     -12.670  11.682  67.419  1.00  0.00     0.000 HD 
HETATM   16  O   UNL     2     -12.260  12.525  67.260  1.00  0.00    -0.454 OA 
BRANCH  14  17
HETATM   17  C   UNL     2     -10.287  11.274  66.703  1.00  0.00    -0.237 C  
HETATM   18  C   UNL     2      -9.266  10.907  65.611  1.00  0.00    -0.203 C  
HETATM   19  H   UNL     2     -10.482   9.409  67.305  1.00  0.00     0.000 HD 
HETATM   20  O   UNL     2     -11.076  10.093  67.018  1.00  0.00    -0.167 OA 
HETATM   21  O   UNL     2      -9.689  10.096  64.691  1.00  0.00    -0.297 OA 
HETATM   22  O   UNL     2      -8.061  11.080  65.774  1.00  0.00    -0.135 OA 
ENDBRANCH  14  17
ENDBRANCH  11  14
ENDBRANCH   2  11
BRANCH   3  23
HETATM   23  C   UNL     3      -9.383   7.776  70.431  1.00  0.00    -0.160 C  
HETATM   24  O   UNL     3      -8.495   7.242  69.441  1.00  0.00    -0.131 OA 
HETATM   25  H   UNL     3      -9.016   6.989  68.688  1.00  0.00     0.000 HD 
BRANCH  23  26
HETATM   26  C   UNL     3     -10.534   6.765  70.639  1.00  0.00    -0.215 C  
HETATM   27  O   UNL     3     -11.796   7.385  70.339  1.00  0.00    -0.481 OA 
HETATM   28  H   UNL     3     -12.503   6.763  70.467  1.00  0.00     0.000 HD 
BRANCH  26  29
HETATM   29  C   UNL     3     -10.525   6.325  72.121  1.00  0.00    -0.199 C  
HETATM   30  C   UNL     3     -10.624   4.804  72.399  1.00  0.00    -0.180 C  
HETATM   31  O   UNL     3     -11.617   6.982  72.851  1.00  0.00    -0.505 OA 
HETATM   32  O   UNL     3      -9.907   4.014  71.761  1.00  0.00    -0.165 OA 
HETATM   33  O   UNL     3     -11.495   4.565  73.342  1.00  0.00    -0.316 OA 
HETATM   34  H   UNL     3     -11.612   6.711  73.762  1.00  0.00     0.000 HD 
ENDBRANCH  26  29
ENDBRANCH  23  26
ENDBRANCH   3  23
BRANCH   3  35
HETATM   35  C   UNL     3      -7.345   9.079  71.343  1.00  0.00    -0.036 C  
HETATM   36  O   UNL     3      -7.811  10.176  70.551  1.00  0.00    -0.424 OA 
HETATM   37  H   UNL     3      -7.064  10.733  70.367  1.00  0.00     0.000 HD 
ENDBRANCH   3  35
TORSDOF 8
ENDMDL
