MODEL       38
REMARK 921   NORMALIZED FREE ENERGY PREDICTED BY IDOCK:   -5.31 KCAL/MOL
REMARK 922        TOTAL FREE ENERGY PREDICTED BY IDOCK:   -7.87 KCAL/MOL
REMARK 923 INTER-LIGAND FREE ENERGY PREDICTED BY IDOCK:   -6.82 KCAL/MOL
REMARK 924 INTRA-LIGAND FREE ENERGY PREDICTED BY IDOCK:   -1.04 KCAL/MOL
REMARK 927      BINDING AFFINITY PREDICTED BY RF-SCORE:    0.00 PKD
ROOT
HETATM    1  O   UNL     1     -10.031   7.161  70.264  1.00  0.00    -0.186 OA 
HETATM    2  H   UNL     1      -9.321   7.146  69.634  1.00  0.00     0.000 HD 
HETATM    3  C   UNL     1      -9.609   7.798  71.472  1.00  0.00    -0.155 C  
ENDROOT
BRANCH   3   4
HETATM    4  C   UNL     1     -10.764   7.823  72.497  1.00  0.00    -0.314 C  
HETATM    5  O   UNL     1     -11.433   9.095  72.557  1.00  0.00    -0.046 OA 
HETATM    6  C   UNL     1     -12.412   9.356  71.548  1.00  0.00    -0.366 C  
HETATM    7  H   UNL     1     -11.988   5.862  69.902  1.00  0.00     0.000 HD 
HETATM    8  C   UNL     1     -13.516   8.275  71.583  1.00  0.00    -0.331 C  
HETATM    9  O   UNL     1     -14.228   8.283  72.826  1.00  0.00    -0.702 OA 
HETATM   10  H   UNL     1     -11.695   4.697  71.981  1.00  0.00     0.000 HD 
HETATM   11  C   UNL     1     -12.884   6.896  71.370  1.00  0.00    -0.311 C  
HETATM   12  C   UNL     1     -11.755   6.645  72.379  1.00  0.00    -0.225 C  
HETATM   13  O   UNL     1     -12.380   6.717  70.034  1.00  0.00    -0.081 OA 
HETATM   14  H   UNL     1     -14.907   7.619  72.848  1.00  0.00     0.000 HD 
HETATM   15  O   UNL     1     -11.085   5.422  72.053  1.00  0.00    -0.218 OA 
BRANCH   6  16
HETATM   16  O   UNL     1     -11.767   9.489  70.283  1.00  0.00    -0.223 OA 
BRANCH  16  17
HETATM   17  C   UNL     1     -11.009  10.687  70.020  1.00  0.00    -0.259 C  
HETATM   18  O   UNL     1      -8.970  11.642  69.056  1.00  0.00    -0.379 OA 
HETATM   19  C   UNL     1      -9.758  10.448  69.158  1.00  0.00    -0.220 C  
HETATM   20  H   UNL     1      -8.197  11.494  68.523  1.00  0.00     0.000 HD 
HETATM   21  C   UNL     1     -11.116  11.031  67.129  1.00  0.00    -0.267 C  
HETATM   22  O   UNL     1     -10.755   8.688  67.798  1.00  0.00    -0.418 OA 
HETATM   23  C   UNL     1     -10.161   9.988  67.751  1.00  0.00    -0.192 C  
HETATM   24  O   UNL     1     -10.459  12.247  66.807  1.00  0.00    -0.216 OA 
HETATM   25  O   UNL     1     -12.258  11.268  67.957  1.00  0.00    -0.621 OA 
HETATM   26  H   UNL     1     -11.004   8.403  66.927  1.00  0.00     0.000 HD 
HETATM   27  H   UNL     1     -11.046  12.888  66.425  1.00  0.00     0.000 HD 
HETATM   28  C   UNL     1     -11.994  11.651  69.312  1.00  0.00    -0.317 C  
BRANCH  28  29
HETATM   29  C   UNL     1     -11.639  13.139  69.459  1.00  0.00    -0.283 C  
HETATM   30  O   UNL     1     -12.370  13.925  68.519  1.00  0.00    -0.494 OA 
HETATM   31  H   UNL     1     -12.150  14.844  68.609  1.00  0.00     0.000 HD 
ENDBRANCH  28  29
ENDBRANCH  16  17
ENDBRANCH   6  16
ENDBRANCH   3   4
TORSDOF 4
ENDMDL
