MODEL       22
REMARK 921   NORMALIZED FREE ENERGY PREDICTED BY IDOCK:   -7.18 KCAL/MOL
REMARK 922        TOTAL FREE ENERGY PREDICTED BY IDOCK:  -11.79 KCAL/MOL
REMARK 923 INTER-LIGAND FREE ENERGY PREDICTED BY IDOCK:  -10.54 KCAL/MOL
REMARK 924 INTRA-LIGAND FREE ENERGY PREDICTED BY IDOCK:   -1.25 KCAL/MOL
REMARK 927      BINDING AFFINITY PREDICTED BY RF-SCORE:    0.00 PKD
ROOT
HETATM    1  C   UNL     1     -11.977  13.634  68.892  1.00  0.00    -0.356 C  
HETATM    2  S   UNL     1     -11.428  15.150  69.627  1.00  0.00    -0.317 SA 
HETATM    3  C   UNL     1     -10.948  16.190  68.198  1.00  0.00    -0.341 C  
HETATM    4  C   UNL     1     -11.161  15.671  66.804  1.00  0.00    -0.169 C  
HETATM    5  CA  UNL     1     -11.666  14.434  66.512  1.00  0.00    -0.391 C  
HETATM    6  CA  UNL     1     -11.463  12.136  69.016  1.00  0.00    -0.297 C  
HETATM    7  C   UNL     1     -11.847  12.122  67.504  1.00  0.00    -0.237 C  
HETATM    8  N   UNL     1     -11.887  13.480  67.469  1.00  0.00    -0.363 N  
HETATM    9  C   UNL     1     -11.983  14.096  65.079  1.00  0.00    -0.408 C  
HETATM   10  O   UNL     1     -11.810  11.272  66.647  1.00  0.00    -0.311 OA 
HETATM   11  O   UNL     1     -11.725  12.842  64.657  1.00  0.00    -0.327 OA 
HETATM   12  OXT UNL     1     -12.476  14.910  64.313  1.00  0.00    -0.670 OA 
ENDROOT
BRANCH   4  13
HETATM   13  C   UNL     1     -10.689  16.615  65.656  1.00  0.00    -0.214 C  
BRANCH  13  14
HETATM   14  S   UNL     1     -10.480  18.415  65.957  1.00  0.00    -0.255 SA 
BRANCH  14  15
HETATM   15  C   UNL     1      -8.908  18.616  66.769  1.00  0.00    -0.297 C  
HETATM   16  N   UNL     1      -7.914  18.061  66.168  1.00  0.00    -0.229 N  
HETATM   17  H   UNL     1      -8.012  17.648  65.241  1.00  0.00     0.000 HD 
HETATM   18  C   UNL     1      -9.969  19.714  68.812  1.00  0.00    -0.451 C  
HETATM   19  C   UNL     1      -6.708  18.054  66.839  1.00  0.00    -0.183 C  
HETATM   20  N   UNL     1      -8.849  19.242  68.017  1.00  0.00    -0.307 NA 
HETATM   21  C   UNL     1      -6.439  19.011  67.999  1.00  0.00    -0.224 C  
HETATM   22  O   UNL     1      -5.825  17.221  66.632  1.00  0.00    -0.175 OA 
HETATM   23  H   UNL     1      -7.538  19.725  69.609  1.00  0.00     0.000 HD 
HETATM   24  N   UNL     1      -7.589  19.368  68.656  1.00  0.00    -0.352 N  
HETATM   25  O   UNL     1      -5.326  19.376  68.339  1.00  0.00    -0.188 OA 
ENDBRANCH  14  15
ENDBRANCH  13  14
ENDBRANCH   4  13
BRANCH   6  26
HETATM   26  N   UNL     1     -10.099  11.475  69.257  1.00  0.00    -0.423 N  
HETATM   27  O   UNL     1      -8.484   9.975  69.832  1.00  0.00    -0.189 OA 
HETATM   28  C   UNL     1      -9.682  10.196  69.662  1.00  0.00    -0.221 C  
HETATM   29  H   UNL     1      -9.318  12.108  69.085  1.00  0.00     0.000 HD 
BRANCH  28  30
HETATM   30  C   UNL     1     -10.619   9.019  69.712  1.00  0.00    -0.228 C  
BRANCH  30  31
HETATM   31  C   UNL     1     -10.932   8.254  70.925  1.00  0.00    -0.246 A  
HETATM   32  H2  UNL     1     -11.498   4.721  73.273  1.00  0.00     0.000 HD 
HETATM   33  C   UNL     1     -10.460   8.641  72.169  1.00  0.00    -0.340 A  
HETATM   34  H1  UNL     1     -12.056   4.512  71.613  1.00  0.00     0.000 HD 
HETATM   35  N   UNL     1     -11.412   6.934  70.891  1.00  0.00    -0.303 NA 
HETATM   36  N   UNL     1     -11.646   5.101  72.338  1.00  0.00    -0.021 NA 
HETATM   37  S   UNL     1     -10.611   7.364  73.296  1.00  0.00    -0.378 SA 
HETATM   38  C   UNL     1     -11.302   6.371  72.074  1.00  0.00    -0.294 A  
ENDBRANCH  30  31
BRANCH  30  39
HETATM   39  N   UNL     1     -11.068   8.426  68.656  1.00  0.00    -0.361 NA 
HETATM   40  H   UNL     1     -12.076   8.319  68.540  1.00  0.00     0.000 HD 
BRANCH  39  41
HETATM   41  O   UNL     1     -10.217   7.928  67.669  1.00  0.00    -0.193 OA 
HETATM   42  C   UNL     1     -10.525   6.766  66.924  1.00  0.00    -0.280 C  
ENDBRANCH  39  41
ENDBRANCH  30  39
ENDBRANCH  28  30
ENDBRANCH   6  26
TORSDOF 8
ENDMDL
