MODEL        3
REMARK 921   NORMALIZED FREE ENERGY PREDICTED BY IDOCK:   -5.47 KCAL/MOL
REMARK 922        TOTAL FREE ENERGY PREDICTED BY IDOCK:   -6.07 KCAL/MOL
REMARK 923 INTER-LIGAND FREE ENERGY PREDICTED BY IDOCK:   -5.51 KCAL/MOL
REMARK 924 INTRA-LIGAND FREE ENERGY PREDICTED BY IDOCK:   -0.56 KCAL/MOL
REMARK 927      BINDING AFFINITY PREDICTED BY RF-SCORE:    0.00 PKD
ROOT
HETATM    1  N   UNL     1     -10.627  13.958  69.349  1.00  0.00    -0.444 NA 
HETATM    2  H2  UNL     1     -10.834  14.876  68.956  1.00  0.00     0.000 HD 
HETATM    3  H1  UNL     1     -10.969  13.887  70.307  1.00  0.00     0.000 HD 
HETATM    4  C   UNL     1     -11.127  12.899  68.485  1.00  0.00    -0.267 C  
ENDROOT
BRANCH   4   5
HETATM    5  C   UNL     1     -10.614  13.005  67.044  1.00  0.00    -0.262 C  
BRANCH   5   6
HETATM    6  C   UNL     1     -11.194  14.151  66.150  1.00  0.00    -0.326 C  
HETATM    7  O   UNL     1     -12.388  14.670  66.837  1.00  0.00    -0.475 OA 
HETATM    8  P   UNL     1     -11.813  13.639  64.506  1.00  0.00    -0.446 P  
HETATM    9  P   UNL     1      -9.944  15.473  65.948  1.00  0.00    -0.386 P  
HETATM   10  H   UNL     1     -12.741  15.365  66.294  1.00  0.00     0.000 HD 
HETATM   11  O   UNL     1     -12.336  13.206  63.114  1.00  0.00    -0.677 OA 
HETATM   12  O   UNL     1     -12.961  12.752  65.312  1.00  0.00    -0.690 OA 
HETATM   13  O   UNL     1     -10.661  12.466  64.462  1.00  0.00    -0.289 OA 
HETATM   14  O   UNL     1     -10.447  16.144  67.370  1.00  0.00    -0.299 OA 
HETATM   15  O   UNL     1     -11.022  16.301  65.020  1.00  0.00    -0.479 OA 
HETATM   16  O   UNL     1      -8.887  16.591  65.776  1.00  0.00    -0.474 OA 
ENDBRANCH   5   6
ENDBRANCH   4   5
TORSDOF 2
ENDMDL
