MODEL       71
REMARK 921   NORMALIZED FREE ENERGY PREDICTED BY IDOCK:   -3.96 KCAL/MOL
REMARK 922        TOTAL FREE ENERGY PREDICTED BY IDOCK:  -10.43 KCAL/MOL
REMARK 923 INTER-LIGAND FREE ENERGY PREDICTED BY IDOCK:   -8.40 KCAL/MOL
REMARK 924 INTRA-LIGAND FREE ENERGY PREDICTED BY IDOCK:   -2.03 KCAL/MOL
REMARK 927      BINDING AFFINITY PREDICTED BY RF-SCORE:    0.00 PKD
ROOT
HETATM    1  C   UNL     1      -6.887   8.875  67.400  1.00  0.00    -0.070 C  
HETATM    2  N   UNL     1      -7.925   8.621  68.394  1.00  0.00    -0.112 NA 
HETATM    3  H   UNL     1      -7.516   8.598  69.329  1.00  0.00     0.000 HD 
ENDROOT
BRANCH   2   4
HETATM    4  C   UNL     1      -9.087   9.560  68.368  1.00  0.00    -0.127 C  
HETATM    5  C   UNL     1      -9.172  10.434  69.645  1.00  0.00    -0.056 C  
HETATM    6  C   UNL     1     -10.284  11.494  69.476  1.00  0.00     0.331 C  
HETATM    7  O   UNL     1      -7.912  11.043  69.939  1.00  0.00    -0.289 OA 
HETATM    8  H   UNL     1      -7.965  11.578  70.722  1.00  0.00     0.000 HD 
HETATM    9  O   UNL     1     -10.864   7.967  68.988  1.00  0.00    -0.393 OA 
HETATM   10  O   UNL     1     -11.533  10.827  69.288  1.00  0.00    -0.254 OA 
HETATM   11  H   UNL     1     -11.718   7.608  68.781  1.00  0.00     0.000 HD 
HETATM   12  C   UNL     1     -11.569  10.078  68.061  1.00  0.00     0.446 C  
HETATM   13  C   UNL     1     -10.521   8.305  66.646  1.00  0.00    -0.217 C  
HETATM   14  C   UNL     1     -10.495   8.969  68.027  1.00  0.00    -0.216 C  
BRANCH   6  15
HETATM   15  O   UNL     1      -9.991  12.365  68.381  1.00  0.00    -0.220 OA 
BRANCH  15  16
HETATM   16  C   UNL     1      -9.922  13.768  68.687  1.00  0.00    -0.174 C  
HETATM   17  H1  UNL     1     -11.547  16.867  65.923  1.00  0.00     0.000 HD 
HETATM   18  C   UNL     1      -8.854  14.541  67.881  1.00  0.00    -0.176 C  
HETATM   19  C   UNL     1     -11.335  14.354  68.413  1.00  0.00    -0.287 C  
HETATM   20  H2  UNL     1      -9.898  16.934  65.572  1.00  0.00     0.000 HD 
HETATM   21  C   UNL     1     -10.590  15.032  66.042  1.00  0.00    -0.322 C  
HETATM   22  C   UNL     1      -9.193  14.479  66.381  1.00  0.00    -0.264 C  
HETATM   23  O   UNL     1     -11.430  15.689  68.955  1.00  0.00    -0.315 OA 
HETATM   24  H   UNL     1     -12.294  16.047  68.787  1.00  0.00     0.000 HD 
HETATM   25  N   UNL     1     -10.622  16.502  66.147  1.00  0.00    -0.278 NA 
HETATM   26  C   UNL     1     -11.692  14.337  66.898  1.00  0.00    -0.408 C  
BRANCH  18  27
HETATM   27  N   UNL     1      -8.692  15.909  68.373  1.00  0.00    -0.177 N  
HETATM   28  H   UNL     1      -9.529  16.469  68.536  1.00  0.00     0.000 HD 
HETATM   29  C   UNL     1      -7.464  16.478  68.626  1.00  0.00    -0.202 C  
HETATM   30  O   UNL     1      -6.396  15.891  68.492  1.00  0.00    -0.107 OA 
BRANCH  29  31
HETATM   31  C   UNL     1      -7.533  17.928  69.130  1.00  0.00    -0.082 C  
HETATM   32  H   UNL     1      -6.292  19.261  69.891  1.00  0.00     0.000 HD 
HETATM   33  O   UNL     1      -6.249  18.365  69.579  1.00  0.00    -0.257 OA 
BRANCH  31  34
HETATM   34  C   UNL     1      -8.009  18.871  68.024  1.00  0.00    -0.315 C  
BRANCH  34  35
HETATM   35  C   UNL     1      -6.971  19.009  66.910  1.00  0.00    -0.200 C  
HETATM   36  H1  UNL     1      -6.811  18.583  64.911  1.00  0.00     0.000 HD 
HETATM   37  H2  UNL     1      -8.388  18.933  65.406  1.00  0.00     0.000 HD 
HETATM   38  N   UNL     1      -7.502  18.492  65.654  1.00  0.00    -0.522 NA 
ENDBRANCH  34  35
ENDBRANCH  31  34
ENDBRANCH  29  31
ENDBRANCH  18  27
BRANCH  26  39
HETATM   39  O   UNL     1     -11.825  13.031  66.341  1.00  0.00    -0.370 OA 
BRANCH  39  40
HETATM   40  C   UNL     1     -11.059  12.704  65.178  1.00  0.00    -0.294 C  
HETATM   41  H1  UNL     1     -14.038  11.946  63.551  1.00  0.00     0.000 HD 
HETATM   42  O   UNL     1     -10.288  11.514  65.371  1.00  0.00    -0.252 OA 
HETATM   43  H2  UNL     1     -13.802  12.504  65.111  1.00  0.00     0.000 HD 
HETATM   44  N   UNL     1     -13.378  12.007  64.327  1.00  0.00    -0.571 NA 
HETATM   45  C   UNL     1     -12.070  12.610  63.987  1.00  0.00    -0.462 C  
HETATM   46  C   UNL     1      -9.646  11.073  64.226  1.00  0.00    -0.262 C  
HETATM   47  C   UNL     1     -11.436  11.976  62.740  1.00  0.00     0.512 C  
HETATM   48  C   UNL     1     -10.143  11.279  62.997  1.00  0.00    -0.327 C  
BRANCH  46  49
HETATM   49  C   UNL     1      -8.367  10.300  64.458  1.00  0.00    -0.168 C  
BRANCH  49  50
HETATM   50  N   UNL     1      -7.331  10.579  63.459  1.00  0.00    -0.342 NA 
HETATM   51  H   UNL     1      -6.491  10.966  63.890  1.00  0.00     0.000 HD 
BRANCH  50  52
HETATM   52  C   UNL     1      -7.022   9.383  62.655  1.00  0.00    -0.094 C  
BRANCH  52  53
HETATM   53  C   UNL     1      -7.615   8.127  63.296  1.00  0.00    -0.132 C  
HETATM   54  O   UNL     1      -8.563   7.517  62.423  1.00  0.00    -0.376 OA 
HETATM   55  H   UNL     1      -8.932   6.737  62.821  1.00  0.00     0.000 HD 
ENDBRANCH  52  53
ENDBRANCH  50  52
ENDBRANCH  49  50
ENDBRANCH  46  49
ENDBRANCH  39  40
ENDBRANCH  26  39
ENDBRANCH  15  16
ENDBRANCH   6  15
ENDBRANCH   2   4
TORSDOF 13
ENDMDL
