MODEL      110
REMARK 921   NORMALIZED FREE ENERGY PREDICTED BY IDOCK:   -4.21 KCAL/MOL
REMARK 922        TOTAL FREE ENERGY PREDICTED BY IDOCK:  -10.23 KCAL/MOL
REMARK 923 INTER-LIGAND FREE ENERGY PREDICTED BY IDOCK:   -9.39 KCAL/MOL
REMARK 924 INTRA-LIGAND FREE ENERGY PREDICTED BY IDOCK:   -0.83 KCAL/MOL
REMARK 927      BINDING AFFINITY PREDICTED BY RF-SCORE:    0.00 PKD
ROOT
HETATM    1  C   UNL     1      -9.908   2.848  73.777  1.00  0.00    -0.148 C  
HETATM    2  C   UNL     1     -10.234   3.951  72.785  1.00  0.00    -0.233 C  
ENDROOT
BRANCH   2   3
HETATM    3  C   UNL     1     -11.048   5.061  73.447  1.00  0.00    -0.404 C  
BRANCH   3   4
HETATM    4  C   UNL     1     -11.779   5.906  72.407  1.00  0.00    -0.307 C  
BRANCH   4   5
HETATM    5  C   UNL     1     -10.854   6.251  71.241  1.00  0.00    -0.317 C  
BRANCH   5   6
HETATM    6  C   UNL     1     -10.090   7.538  71.526  1.00  0.00    -0.201 C  
BRANCH   6   7
HETATM    7  C   UNL     1     -10.660   8.716  70.741  1.00  0.00    -0.254 C  
BRANCH   7   8
HETATM    8  C   UNL     1     -11.571   9.541  71.647  1.00  0.00    -0.451 C  
BRANCH   8   9
HETATM    9  C   UNL     1     -12.258  10.667  70.887  1.00  0.00    -0.497 C  
BRANCH   9  10
HETATM   10  C   UNL     1     -11.298  11.382  69.924  1.00  0.00    -0.300 C  
BRANCH  10  11
HETATM   11  C   UNL     1     -11.913  12.593  69.208  1.00  0.00    -0.301 C  
BRANCH  11  12
HETATM   12  C   UNL     1     -11.829  12.418  67.713  1.00  0.00    -0.298 C  
HETATM   13  O   UNL     1     -11.826  11.344  67.130  1.00  0.00    -0.566 OA 
BRANCH  12  14
HETATM   14  O   UNL     1     -11.948  13.631  67.106  1.00  0.00    -0.382 OA 
BRANCH  14  15
HETATM   15  C   UNL     1     -12.640  13.594  65.852  1.00  0.00    -0.425 C  
BRANCH  15  16
HETATM   16  C   UNL     1     -11.624  14.030  64.791  1.00  0.00    -0.381 C  
BRANCH  16  17
HETATM   17  N   UNL     1     -10.443  14.685  65.329  1.00  0.00    -0.369 N  
HETATM   18  C   UNL     1     -10.314  16.052  65.284  1.00  0.00    -0.290 C  
HETATM   19  H   UNL     1      -9.701  14.122  65.745  1.00  0.00     0.000 HD 
HETATM   20  O   UNL     1     -11.107  16.786  64.702  1.00  0.00    -0.844 OA 
BRANCH  18  21
HETATM   21  C   UNL     1      -9.067  16.624  65.927  1.00  0.00    -0.120 C  
BRANCH  21  22
HETATM   22  N   UNL     1      -9.457  17.708  66.853  1.00  0.00    -0.267 NA 
HETATM   23  C   UNL     1      -9.673  17.428  68.164  1.00  0.00    -0.291 A  
HETATM   24  C   UNL     1     -10.061  18.428  69.045  1.00  0.00    -0.274 A  
HETATM   25  C   UNL     1     -10.208  19.727  68.580  1.00  0.00    -0.547 A  
HETATM   26  C   UNL     1      -9.967  20.003  67.241  1.00  0.00    -0.574 A  
HETATM   27  C   UNL     1      -9.589  18.971  66.390  1.00  0.00    -0.353 A  
ENDBRANCH  21  22
ENDBRANCH  18  21
ENDBRANCH  16  17
ENDBRANCH  15  16
ENDBRANCH  14  15
ENDBRANCH  12  14
ENDBRANCH  11  12
ENDBRANCH  10  11
ENDBRANCH   9  10
ENDBRANCH   8   9
ENDBRANCH   7   8
ENDBRANCH   6   7
ENDBRANCH   5   6
ENDBRANCH   4   5
ENDBRANCH   3   4
ENDBRANCH   2   3
TORSDOF 16
ENDMDL
