MODEL       11
REMARK 921   NORMALIZED FREE ENERGY PREDICTED BY IDOCK:   -6.23 KCAL/MOL
REMARK 922        TOTAL FREE ENERGY PREDICTED BY IDOCK:   -7.62 KCAL/MOL
REMARK 923 INTER-LIGAND FREE ENERGY PREDICTED BY IDOCK:   -7.29 KCAL/MOL
REMARK 924 INTRA-LIGAND FREE ENERGY PREDICTED BY IDOCK:   -0.33 KCAL/MOL
REMARK 927      BINDING AFFINITY PREDICTED BY RF-SCORE:    0.00 PKD
ROOT
HETATM    1  S   UNL     1     -10.240  17.163  66.993  1.00  0.00    -0.312 SA 
ENDROOT
BRANCH   1   2
HETATM    2  C   UNL     1      -8.912  18.252  67.376  1.00  0.00    -0.257 A  
HETATM    3  S   UNL     1      -8.416  19.473  66.279  1.00  0.00    -0.328 SA 
HETATM    4  N   UNL     1      -8.251  18.199  68.512  1.00  0.00    -0.308 NA 
HETATM    5  C   UNL     1      -7.223  19.998  67.403  1.00  0.00    -0.260 A  
HETATM    6  C   UNL     1      -7.292  19.195  68.544  1.00  0.00    -0.313 A  
HETATM    7  C   UNL     1      -6.290  21.041  67.286  1.00  0.00    -0.405 A  
HETATM    8  C   UNL     1      -6.403  19.449  69.606  1.00  0.00    -0.333 A  
HETATM    9  C   UNL     1      -5.410  21.264  68.350  1.00  0.00    -0.260 A  
HETATM   10  C   UNL     1      -5.466  20.481  69.499  1.00  0.00    -0.372 A  
ENDBRANCH   1   2
BRANCH   1  11
HETATM   11  S   UNL     1      -9.491  15.392  67.744  1.00  0.00    -0.204 SA 
BRANCH  11  12
HETATM   12  C   UNL     1     -10.614  15.134  69.071  1.00  0.00    -0.245 A  
HETATM   13  C   UNL     1     -12.840  15.470  73.101  1.00  0.00    -0.610 A  
HETATM   14  C   UNL     1     -13.356  14.214  72.797  1.00  0.00    -0.618 A  
HETATM   15  N   UNL     1     -10.768  16.003  70.046  1.00  0.00    -0.325 NA 
HETATM   16  C   UNL     1     -13.020  13.570  71.603  1.00  0.00    -0.447 A  
HETATM   17  C   UNL     1     -11.619  15.485  71.003  1.00  0.00    -0.382 A  
HETATM   18  C   UNL     1     -12.145  14.224  70.719  1.00  0.00    -0.348 A  
HETATM   19  C   UNL     1     -11.974  16.114  72.212  1.00  0.00    -0.637 A  
HETATM   20  S   UNL     1     -11.540  13.697  69.195  1.00  0.00    -0.328 SA 
ENDBRANCH  11  12
ENDBRANCH   1  11
TORSDOF 3
ENDMDL
