MODEL        3
REMARK 921   NORMALIZED FREE ENERGY PREDICTED BY IDOCK:   -7.76 KCAL/MOL
REMARK 922        TOTAL FREE ENERGY PREDICTED BY IDOCK:  -12.78 KCAL/MOL
REMARK 923 INTER-LIGAND FREE ENERGY PREDICTED BY IDOCK:  -11.97 KCAL/MOL
REMARK 924 INTRA-LIGAND FREE ENERGY PREDICTED BY IDOCK:   -0.81 KCAL/MOL
REMARK 927      BINDING AFFINITY PREDICTED BY RF-SCORE:    0.00 PKD
ROOT
HETATM    1  C   UNL     1     -11.365   5.184  72.947  1.00  0.00    -0.282 C  
HETATM    2  N   UNL     1     -11.526   6.586  72.681  1.00  0.00    -0.417 N  
HETATM    3  C   UNL     1     -11.654   7.063  71.394  1.00  0.00    -0.292 C  
HETATM    4  H   UNL     1     -11.546   7.243  73.460  1.00  0.00     0.000 HD 
HETATM    5  O   UNL     1     -11.626   6.346  70.400  1.00  0.00    -0.386 OA 
ENDROOT
BRANCH   3   6
HETATM    6  C   UNL     1     -11.859   8.545  71.281  1.00  0.00    -0.291 A  
HETATM    7  N   UNL     1     -12.968   9.067  71.877  1.00  0.00    -0.360 NA 
HETATM    8  C   UNL     1     -13.166  10.394  71.704  1.00  0.00    -0.400 A  
HETATM    9  C   UNL     1     -12.344  11.211  70.938  1.00  0.00    -0.500 A  
HETATM   10  C   UNL     1     -11.235  10.639  70.326  1.00  0.00    -0.285 A  
HETATM   11  C   UNL     1     -10.954   9.291  70.545  1.00  0.00    -0.318 A  
BRANCH  10  12
HETATM   12  O   UNL     1     -10.458  11.461  69.529  1.00  0.00    -0.083 OA 
BRANCH  12  13
HETATM   13  C   UNL     1     -11.066  12.092  68.462  1.00  0.00    -0.244 A  
HETATM   14  C   UNL     1     -11.203  11.487  67.218  1.00  0.00    -0.365 A  
HETATM   15  C   UNL     1     -11.685  12.221  66.140  1.00  0.00    -0.440 A  
HETATM   16  C   UNL     1     -12.157  13.530  66.292  1.00  0.00    -0.428 A  
HETATM   17  C   UNL     1     -12.103  14.104  67.565  1.00  0.00    -0.363 A  
HETATM   18  C   UNL     1     -11.561  13.385  68.647  1.00  0.00    -0.362 A  
BRANCH  16  19
HETATM   19  N   UNL     1     -12.676  14.277  65.201  1.00  0.00    -0.632 N  
HETATM   20  H   UNL     1     -13.601  14.037  64.842  1.00  0.00     0.000 HD 
BRANCH  19  21
HETATM   21  C   UNL     1     -11.982  15.320  64.600  1.00  0.00    -0.233 C  
HETATM   22  O   UNL     1     -12.531  16.186  63.930  1.00  0.00    -0.824 OA 
BRANCH  21  23
HETATM   23  N   UNL     1     -10.616  15.289  64.814  1.00  0.00    -0.553 N  
HETATM   24  H   UNL     1     -10.053  14.642  64.261  1.00  0.00     0.000 HD 
BRANCH  23  25
HETATM   25  C   UNL     1      -9.954  16.118  65.772  1.00  0.00    -0.340 A  
HETATM   26  C   UNL     1     -10.387  17.412  66.085  1.00  0.00    -0.329 A  
HETATM   27  C   UNL     1      -9.675  18.265  66.946  1.00  0.00    -0.317 A  
HETATM   28  C   UNL     1     -10.158  19.676  67.151  1.00  0.00    -0.411 C  
HETATM   29  C   UNL     1      -8.531  17.766  67.561  1.00  0.00    -0.227 A  
HETATM   30  F   UNL     1      -9.233  20.613  66.797  1.00  0.00    -0.422 F  
HETATM   31  F   UNL     1     -10.496  19.940  68.444  1.00  0.00    -0.528 F  
HETATM   32  F   UNL     1     -11.271  19.983  66.423  1.00  0.00    -0.428 F  
HETATM   33 CL   UNL     1      -7.595  18.717  68.655  1.00  0.00    -0.345 Cl 
HETATM   34  C   UNL     1      -8.110  16.454  67.305  1.00  0.00    -0.198 A  
HETATM   35  C   UNL     1      -8.812  15.632  66.412  1.00  0.00    -0.365 A  
ENDBRANCH  23  25
ENDBRANCH  21  23
ENDBRANCH  19  21
ENDBRANCH  16  19
ENDBRANCH  12  13
ENDBRANCH  10  12
ENDBRANCH   3   6
TORSDOF 7
ENDMDL
