MODEL      160
REMARK 921   NORMALIZED FREE ENERGY PREDICTED BY IDOCK:   18.70 KCAL/MOL
REMARK 922        TOTAL FREE ENERGY PREDICTED BY IDOCK:   26.95 KCAL/MOL
REMARK 923 INTER-LIGAND FREE ENERGY PREDICTED BY IDOCK:    0.37 KCAL/MOL
REMARK 924 INTRA-LIGAND FREE ENERGY PREDICTED BY IDOCK:   26.58 KCAL/MOL
REMARK 927      BINDING AFFINITY PREDICTED BY RF-SCORE:    0.00 PKD
ROOT
HETATM    1  C   UNL     1      -9.135  11.045  62.331  1.00  0.00    -0.281 C  
HETATM    2  N   UNL     1      -8.969  10.681  63.724  1.00  0.00    -0.194 NA 
HETATM    3  C   UNL     1      -8.973   9.381  64.202  1.00  0.00    -0.144 A  
HETATM    4  C   UNL     1      -9.536   9.335  65.497  1.00  0.00    -0.220 A  
HETATM    5  N   UNL     1      -8.545   8.284  63.532  1.00  0.00    -0.408 NA 
HETATM    6  C   UNL     1      -9.928  10.708  65.699  1.00  0.00    -0.268 A  
HETATM    7  H2  UNL     1      -8.188   8.429  62.587  1.00  0.00     0.000 HD 
HETATM    8  H1  UNL     1      -8.548   7.328  63.884  1.00  0.00     0.000 HD 
HETATM    9  N   UNL     1      -9.235  11.512  64.753  1.00  0.00    -0.047 NA 
ENDROOT
BRANCH   4  10
HETATM   10  N   UNL     1      -9.705   8.133  66.161  1.00  0.00    -0.446 N  
HETATM   11  H   UNL     1      -9.942   7.322  65.590  1.00  0.00     0.000 HD 
BRANCH  10  12
HETATM   12  C   UNL     1      -9.586   7.925  67.501  1.00  0.00    -0.152 C  
HETATM   13  O   UNL     1      -8.481   7.703  67.980  1.00  0.00    -0.123 OA 
BRANCH  12  14
HETATM   14  N   UNL     1     -10.764   7.821  68.177  1.00  0.00    -0.417 N  
HETATM   15  H   UNL     1     -11.629   8.166  67.762  1.00  0.00     0.000 HD 
BRANCH  14  16
HETATM   16  C   UNL     1     -10.773   7.212  69.497  1.00  0.00    -0.239 C  
BRANCH  16  17
HETATM   17  C   UNL     1     -11.062   8.225  70.611  1.00  0.00    -0.253 C  
HETATM   18  H2  UNL     1      -9.142   8.141  71.366  1.00  0.00     0.000 HD 
HETATM   19  N   UNL     1     -10.105   8.076  71.697  1.00  0.00    -0.177 NA 
HETATM   20  H1  UNL     1     -10.297   8.750  72.438  1.00  0.00     0.000 HD 
ENDBRANCH  16  17
ENDBRANCH  14  16
ENDBRANCH  12  14
ENDBRANCH  10  12
ENDBRANCH   4  10
BRANCH   9  21
HETATM   21  C   UNL     1      -8.995  12.982  64.648  1.00  0.00     1.971 C  
BRANCH  21  22
HETATM   22  C   UNL     1      -8.788  13.929  66.133  1.00  0.00     0.360 C  
HETATM   23  CA  UNL     1      -9.468  15.637  66.679  1.00  0.00    -0.259 C  
HETATM   24  C   UNL     1     -10.623  16.176  68.898  1.00  0.00    -0.275 C  
HETATM   25  C   UNL     1      -7.752  12.852  67.272  1.00  0.00    -0.122 C  
HETATM   26  C   UNL     1     -10.406  17.012  65.740  1.00  0.00    -0.261 C  
HETATM   27  N   UNL     1      -9.405  16.254  68.197  1.00  0.00    -0.207 N  
HETATM   28  O   UNL     1     -11.801  16.148  68.564  1.00  0.00    -0.300 OA 
HETATM   29  S   UNL     1      -7.458  13.634  69.360  1.00  0.00     0.411 SA 
HETATM   30  C   UNL     1      -8.609  15.573  69.442  1.00  0.00    -0.259 C  
HETATM   31  O   UNL     1     -10.082  17.198  64.521  1.00  0.00     1.044 OA 
HETATM   32  OXT UNL     1     -11.089  17.729  66.514  1.00  0.00     0.121 OA 
HETATM   33  CA  UNL     1     -10.036  15.439  70.107  1.00  0.00    -0.063 C  
BRANCH  33  34
HETATM   34  N   UNL     1     -10.666  14.092  70.320  1.00  0.00    -0.193 N  
HETATM   35  C   UNL     1     -10.568  12.898  69.591  1.00  0.00     0.613 C  
HETATM   36  H   UNL     1     -11.272  14.036  71.139  1.00  0.00     0.000 HD 
HETATM   37  O   UNL     1     -11.202  11.959  70.073  1.00  0.00    -0.098 OA 
BRANCH  35  38
HETATM   38  C   UNL     1      -9.721  12.646  68.267  1.00  0.00    -0.216 C  
HETATM   39  C   UNL     1      -8.605  11.730  68.236  1.00  0.00    -0.162 C  
HETATM   40  C   UNL     1      -6.151   9.888  67.710  1.00  0.00    -0.054 C  
HETATM   41  N   UNL     1      -8.616  10.874  69.634  1.00  0.00     0.234 NA 
HETATM   42  N   UNL     1      -5.405   8.894  67.142  1.00  0.00    -0.040 NA 
HETATM   43  H   UNL     1      -7.088  11.503  66.131  1.00  0.00     0.000 HD 
HETATM   44  S   UNL     1      -6.774   9.352  69.909  1.00  0.00    -0.065 SA 
HETATM   45  H1  UNL     1      -5.134   9.126  66.186  1.00  0.00     0.000 HD 
HETATM   46  H2  UNL     1      -5.150   8.027  67.614  1.00  0.00     0.000 HD 
HETATM   47  N   UNL     1      -7.208  11.125  67.071  1.00  0.00    -0.120 NA 
BRANCH  38  48
HETATM   48  N   UNL     1     -10.019  13.081  67.092  1.00  0.00    -0.231 NA 
HETATM   49  H   UNL     1      -9.485  12.772  66.280  1.00  0.00     0.000 HD 
BRANCH  48  50
HETATM   50  O   UNL     1     -11.052  13.956  66.940  1.00  0.00    -0.292 OA 
HETATM   51  O   UNL     1     -13.061  12.362  64.497  1.00  0.00    -0.823 OA 
HETATM   52  C   UNL     1     -12.291  13.106  65.091  1.00  0.00    -0.473 C  
HETATM   53  C   UNL     1     -13.388  14.110  67.019  1.00  0.00     3.214 C  
HETATM   54  C   UNL     1     -12.272  11.635  66.951  1.00  0.00     0.929 C  
HETATM   55  C   UNL     1     -12.235  13.186  66.607  1.00  0.00    -0.267 C  
HETATM   56  O   UNL     1     -11.428  13.921  64.452  1.00  0.00    -0.378 OA 
ENDBRANCH  48  50
ENDBRANCH  38  48
ENDBRANCH  35  38
ENDBRANCH  33  34
ENDBRANCH  21  22
ENDBRANCH   9  21
TORSDOF 11
ENDMDL
