MODEL       36
REMARK 921   NORMALIZED FREE ENERGY PREDICTED BY IDOCK:   -5.45 KCAL/MOL
REMARK 922        TOTAL FREE ENERGY PREDICTED BY IDOCK:  -13.68 KCAL/MOL
REMARK 923 INTER-LIGAND FREE ENERGY PREDICTED BY IDOCK:  -12.54 KCAL/MOL
REMARK 924 INTRA-LIGAND FREE ENERGY PREDICTED BY IDOCK:   -1.14 KCAL/MOL
REMARK 927      BINDING AFFINITY PREDICTED BY RF-SCORE:    0.00 PKD
ROOT
HETATM    1  C   UNL     1     -10.195  19.676  68.850  1.00  0.00    -0.419 C  
HETATM    2  C   UNL     1      -9.860  18.951  67.533  1.00  0.00    -0.377 C  
HETATM    3  C   UNL     1     -10.839  19.411  66.425  1.00  0.00    -0.421 C  
ENDROOT
BRANCH   2   4
HETATM    4  C   UNL     1      -8.447  19.367  67.075  1.00  0.00    -0.287 C  
HETATM    5  O   UNL     1      -8.309  20.786  67.041  1.00  0.00    -0.547 OA 
HETATM    6  H   UNL     1      -7.439  21.042  66.759  1.00  0.00     0.000 HD 
ENDBRANCH   2   4
BRANCH   2   7
HETATM    7  C   UNL     1      -9.923  17.401  67.706  1.00  0.00    -0.301 C  
HETATM    8  O   UNL     1     -11.161  16.953  68.284  1.00  0.00    -0.349 OA 
HETATM    9  H   UNL     1     -11.198  16.010  68.389  1.00  0.00     0.000 HD 
BRANCH   7  10
HETATM   10  C   UNL     1      -9.696  16.590  66.410  1.00  0.00    -0.285 C  
HETATM   11  O   UNL     1      -8.644  16.563  65.778  1.00  0.00    -0.442 OA 
HETATM   12  N   UNL     1     -10.783  15.823  66.057  1.00  0.00    -0.323 N  
HETATM   13  H   UNL     1     -11.660  15.924  66.569  1.00  0.00     0.000 HD 
BRANCH  12  14
HETATM   14  C   UNL     1     -10.699  14.874  64.968  1.00  0.00    -0.431 C  
BRANCH  14  15
HETATM   15  C   UNL     1     -12.061  14.392  64.482  1.00  0.00    -0.498 C  
BRANCH  15  16
HETATM   16  C   UNL     1     -11.892  13.035  63.837  1.00  0.00    -0.477 C  
HETATM   17  O   UNL     1     -12.837  12.435  63.335  1.00  0.00    -0.732 OA 
HETATM   18  N   UNL     1     -10.600  12.562  63.845  1.00  0.00    -0.421 N  
HETATM   19  H   UNL     1      -9.883  13.166  64.246  1.00  0.00     0.000 HD 
BRANCH  18  20
HETATM   20  C   UNL     1     -10.171  11.262  63.322  1.00  0.00    -0.368 C  
BRANCH  20  21
HETATM   21  C   UNL     1      -9.838  10.173  64.346  1.00  0.00    -0.237 C  
BRANCH  21  22
HETATM   22  S   UNL     1      -8.287  10.439  65.288  1.00  0.00    -0.160 SA 
BRANCH  22  23
HETATM   23  S   UNL     1      -8.925  11.177  67.103  1.00  0.00    -0.147 SA 
BRANCH  23  24
HETATM   24  C   UNL     1     -10.732  10.988  66.958  1.00  0.00    -0.270 C  
BRANCH  24  25
HETATM   25  C   UNL     1     -11.463  12.200  67.541  1.00  0.00    -0.340 C  
BRANCH  25  26
HETATM   26  N   UNL     1     -11.901  12.044  68.926  1.00  0.00    -0.307 N  
HETATM   27  H   UNL     1     -12.061  11.100  69.278  1.00  0.00     0.000 HD 
HETATM   28  C   UNL     1     -12.111  13.104  69.784  1.00  0.00    -0.270 C  
HETATM   29  O   UNL     1     -12.004  14.280  69.453  1.00  0.00    -0.304 OA 
BRANCH  28  30
HETATM   30  C   UNL     1     -12.451  12.704  71.201  1.00  0.00    -0.326 C  
BRANCH  30  31
HETATM   31  C   UNL     1     -12.980  11.273  71.223  1.00  0.00    -0.327 C  
BRANCH  31  32
HETATM   32  N   UNL     1     -11.949  10.314  71.574  1.00  0.00    -0.328 N  
HETATM   33  H   UNL     1     -10.971  10.577  71.450  1.00  0.00     0.000 HD 
HETATM   34  C   UNL     1     -12.243   9.065  72.068  1.00  0.00    -0.375 C  
HETATM   35  O   UNL     1     -13.386   8.627  72.166  1.00  0.00    -0.361 OA 
BRANCH  34  36
HETATM   36  C   UNL     1     -10.998   8.223  72.425  1.00  0.00    -0.368 C  
HETATM   37  O   UNL     1      -9.806   8.997  72.214  1.00  0.00    -0.218 OA 
HETATM   38  H   UNL     1      -9.040   8.479  72.433  1.00  0.00     0.000 HD 
BRANCH  36  39
HETATM   39  C   UNL     1     -10.911   6.884  71.641  1.00  0.00    -0.262 C  
HETATM   40  C   UNL     1      -9.477   6.616  71.139  1.00  0.00    -0.167 C  
HETATM   41  C   UNL     1     -11.290   5.725  72.593  1.00  0.00    -0.349 C  
BRANCH  39  42
HETATM   42  C   UNL     1     -11.897   6.906  70.448  1.00  0.00    -0.299 C  
HETATM   43  O   UNL     1     -11.242   7.227  69.225  1.00  0.00    -0.446 OA 
HETATM   44  H   UNL     1     -11.847   7.240  68.493  1.00  0.00     0.000 HD 
ENDBRANCH  39  42
ENDBRANCH  36  39
ENDBRANCH  34  36
ENDBRANCH  31  32
ENDBRANCH  30  31
ENDBRANCH  28  30
ENDBRANCH  25  26
ENDBRANCH  24  25
ENDBRANCH  23  24
ENDBRANCH  22  23
ENDBRANCH  21  22
ENDBRANCH  20  21
ENDBRANCH  18  20
ENDBRANCH  15  16
ENDBRANCH  14  15
ENDBRANCH  12  14
ENDBRANCH   7  10
ENDBRANCH   2   7
TORSDOF 19
ENDMDL
