MODEL       15
REMARK 921   NORMALIZED FREE ENERGY PREDICTED BY IDOCK:   -5.81 KCAL/MOL
REMARK 922        TOTAL FREE ENERGY PREDICTED BY IDOCK:   -6.95 KCAL/MOL
REMARK 923 INTER-LIGAND FREE ENERGY PREDICTED BY IDOCK:   -6.81 KCAL/MOL
REMARK 924 INTRA-LIGAND FREE ENERGY PREDICTED BY IDOCK:   -0.13 KCAL/MOL
REMARK 927      BINDING AFFINITY PREDICTED BY RF-SCORE:    0.00 PKD
ROOT
HETATM    1  C   UNL     1      -9.613  15.559  66.990  1.00  0.00    -0.224 C  
HETATM    2  C   UNL     1      -8.084  15.487  66.846  1.00  0.00    -0.284 C  
HETATM    3  C   UNL     1      -7.737  16.792  67.274  1.00  0.00    -0.200 A  
HETATM    4  C   UNL     1      -6.887  17.191  68.253  1.00  0.00    -0.177 A  
HETATM    5  N   UNL     1      -7.182  18.507  68.453  1.00  0.00    -0.266 NA 
HETATM    6  C   UNL     1      -6.487  19.245  69.484  1.00  0.00    -0.303 C  
HETATM    7  C   UNL     1      -8.261  18.895  67.645  1.00  0.00    -0.267 A  
HETATM    8  C   UNL     1      -8.694  17.775  66.933  1.00  0.00    -0.262 A  
HETATM    9  C   UNL     1     -10.030  17.604  66.287  1.00  0.00    -0.324 A  
HETATM   10  C   UNL     1     -10.639  18.843  66.062  1.00  0.00    -0.470 A  
HETATM   11  C   UNL     1     -10.909  16.180  66.468  1.00  0.00    -0.139 C  
HETATM   12  C   UNL     1     -11.603  14.916  66.642  1.00  0.00    -0.265 C  
HETATM   13  C   UNL     1     -10.106  20.031  66.648  1.00  0.00    -0.607 A  
HETATM   14  C   UNL     1      -8.981  20.072  67.512  1.00  0.00    -0.437 A  
HETATM   15  C   UNL     1     -10.904  13.545  67.411  1.00  0.00    -0.279 C  
HETATM   16  C   UNL     1     -10.255  14.076  68.713  1.00  0.00    -0.197 C  
HETATM   17  C   UNL     1     -10.352  16.569  69.156  1.00  0.00    -0.316 C  
HETATM   18  N   UNL     1      -9.883  15.409  68.414  1.00  0.00    -0.211 NA 
ENDROOT
BRANCH  15  19
HETATM   19  C   UNL     1      -9.937  12.878  66.385  1.00  0.00    -0.267 C  
HETATM   20  O   UNL     1     -10.090  13.002  65.169  1.00  0.00    -0.279 OA 
HETATM   21  H   UNL     1      -8.971  12.056  68.012  1.00  0.00     0.000 HD 
HETATM   22  N   UNL     1      -9.036  12.021  66.995  1.00  0.00    -0.191 N  
BRANCH  22  23
HETATM   23  CA  UNL     1      -8.170  11.071  66.301  1.00  0.00    -0.164 C  
BRANCH  23  24
HETATM   24  C   UNL     1      -8.796   9.643  66.267  1.00  0.00    -0.151 C  
HETATM   25  H   UNL     1     -10.445   8.749  65.589  1.00  0.00     0.000 HD 
HETATM   26  O   UNL     1     -10.064   9.619  65.609  1.00  0.00    -0.296 OA 
ENDBRANCH  23  24
BRANCH  23  27
HETATM   27  C   UNL     1      -6.833  11.096  67.033  1.00  0.00    -0.119 C  
HETATM   28  C   UNL     1      -6.673  12.378  67.821  1.00  0.00    -0.115 C  
ENDBRANCH  23  27
ENDBRANCH  22  23
ENDBRANCH  15  19
TORSDOF 4
ENDMDL
