MODEL      403
REMARK 921   NORMALIZED FREE ENERGY PREDICTED BY IDOCK:   -2.40 KCAL/MOL
REMARK 922        TOTAL FREE ENERGY PREDICTED BY IDOCK:   -6.45 KCAL/MOL
REMARK 923 INTER-LIGAND FREE ENERGY PREDICTED BY IDOCK:   -5.06 KCAL/MOL
REMARK 924 INTRA-LIGAND FREE ENERGY PREDICTED BY IDOCK:   -1.39 KCAL/MOL
REMARK 927      BINDING AFFINITY PREDICTED BY RF-SCORE:    0.00 PKD
ROOT
HETATM    1  C   UNL     1     -11.358  16.883  66.065  1.00  0.00     0.789 C  
HETATM    2  C   UNL     1      -9.945  16.773  66.629  1.00  0.00    -0.293 C  
HETATM    3  C   UNL     1      -9.575  18.031  67.407  1.00  0.00    -0.272 C  
ENDROOT
BRANCH   2   4
HETATM    4  O   UNL     1      -9.884  15.663  67.544  1.00  0.00    -0.225 OA 
BRANCH   4   5
HETATM    5  C   UNL     1     -11.032  14.935  67.640  1.00  0.00    -0.300 C  
HETATM    6  O   UNL     1     -12.089  15.347  68.097  1.00  0.00    -0.153 OA 
BRANCH   5   7
HETATM    7  C   UNL     1     -10.799  13.528  67.157  1.00  0.00    -0.291 C  
BRANCH   7   8
HETATM    8  C   UNL     1     -11.852  12.593  67.753  1.00  0.00    -0.381 C  
BRANCH   8   9
HETATM    9  C   UNL     1     -11.425  11.957  69.073  1.00  0.00    -0.355 C  
BRANCH   9  10
HETATM   10  C   UNL     1     -11.480  10.454  69.041  1.00  0.00    -0.258 C  
HETATM   11  C   UNL     1     -10.424   9.629  68.965  1.00  0.00    -0.229 C  
BRANCH  11  12
HETATM   12  C   UNL     1      -8.988  10.051  68.820  1.00  0.00    -0.145 C  
BRANCH  12  13
HETATM   13  C   UNL     1      -8.418   9.776  67.422  1.00  0.00    -0.121 C  
HETATM   14  C   UNL     1      -8.385  10.980  66.474  1.00  0.00    -0.163 C  
HETATM   15  O   UNL     1      -8.039  12.180  67.158  1.00  0.00    -0.167 OA 
HETATM   16  C   UNL     1      -7.270  10.644  65.491  1.00  0.00    -0.052 C  
HETATM   17  C   UNL     1      -6.195  10.005  66.366  1.00  0.00    -0.068 C  
HETATM   18  H   UNL     1      -8.018  12.926  66.569  1.00  0.00     0.000 HD 
HETATM   19  O   UNL     1      -5.361  11.024  66.926  1.00  0.00    -0.052 OA 
HETATM   20  C   UNL     1      -6.950   9.269  67.499  1.00  0.00    -0.078 C  
HETATM   21  H   UNL     1      -4.693  10.626  67.472  1.00  0.00     0.000 HD 
BRANCH  20  22
HETATM   22  C   UNL     1      -6.937   7.751  67.466  1.00  0.00    -0.078 C  
HETATM   23  C   UNL     1      -7.855   6.955  66.888  1.00  0.00    -0.107 C  
BRANCH  23  24
HETATM   24  C   UNL     1      -7.887   5.442  66.894  1.00  0.00    -0.101 C  
HETATM   25  H   UNL     1      -6.699   3.985  66.338  1.00  0.00     0.000 HD 
HETATM   26  O   UNL     1      -6.679   4.935  66.334  1.00  0.00    -0.048 OA 
BRANCH  24  27
HETATM   27  C   UNL     1      -8.064   4.916  68.333  1.00  0.00    -0.085 C  
BRANCH  27  28
HETATM   28  O   UNL     1      -9.357   5.261  68.856  1.00  0.00    -0.114 OA 
BRANCH  28  29
HETATM   29  C   UNL     1      -9.452   5.176  70.223  1.00  0.00    -0.172 A  
HETATM   30  C   UNL     1      -9.963   4.070  70.908  1.00  0.00    -0.167 A  
HETATM   31  C   UNL     1     -10.010   4.067  72.304  1.00  0.00    -0.236 A  
HETATM   32  C   UNL     1      -9.539   5.164  73.022  1.00  0.00    -0.158 A  
HETATM   33  C   UNL     1      -9.010   6.275  72.355  1.00  0.00    -0.138 A  
HETATM   34  C   UNL     1      -8.501   7.465  73.130  1.00  0.00    -0.129 C  
HETATM   35  C   UNL     1      -8.960   6.265  70.949  1.00  0.00    -0.147 A  
HETATM   36  F   UNL     1      -8.660   7.339  74.480  1.00  0.00    -0.193 F  
HETATM   37  F   UNL     1      -9.135   8.621  72.791  1.00  0.00    -0.308 F  
HETATM   38  F   UNL     1      -7.173   7.692  72.935  1.00  0.00    -0.066 F  
ENDBRANCH  28  29
ENDBRANCH  27  28
ENDBRANCH  24  27
ENDBRANCH  23  24
ENDBRANCH  20  22
ENDBRANCH  12  13
ENDBRANCH  11  12
ENDBRANCH   9  10
ENDBRANCH   8   9
ENDBRANCH   7   8
ENDBRANCH   5   7
ENDBRANCH   4   5
ENDBRANCH   2   4
TORSDOF 13
ENDMDL
