MODEL      336
REMARK 921   NORMALIZED FREE ENERGY PREDICTED BY IDOCK:    3.93 KCAL/MOL
REMARK 922        TOTAL FREE ENERGY PREDICTED BY IDOCK:    4.10 KCAL/MOL
REMARK 923 INTER-LIGAND FREE ENERGY PREDICTED BY IDOCK:    3.88 KCAL/MOL
REMARK 924 INTRA-LIGAND FREE ENERGY PREDICTED BY IDOCK:    0.22 KCAL/MOL
REMARK 927      BINDING AFFINITY PREDICTED BY RF-SCORE:    0.00 PKD
ROOT
HETATM    1 MN   UNL     1     -10.305  16.638  69.608  1.00  0.00    -0.225 Mn 
HETATM    2  C   UNL     2      -5.930  10.554  71.585  1.00  0.00     0.501 C  
HETATM    3  C   UNL     3     -10.830  17.865  67.391  1.00  0.00    -0.204 C  
HETATM    4  H   UNL     3     -11.762  19.357  66.570  1.00  0.00     0.000 HD 
HETATM    5  H   UNL     2      -5.941  12.448  71.856  1.00  0.00     0.000 HD 
HETATM    6  O   UNL     2      -5.445  11.725  72.222  1.00  0.00    -0.150 OA 
HETATM    7  O   UNL     3     -10.938  18.904  66.433  1.00  0.00    -0.209 OA 
ENDROOT
BRANCH   2   8
HETATM    8  C   UNL     2      -5.125   9.381  72.179  1.00  0.00    -0.074 C  
HETATM    9  H   UNL     2      -5.443   7.567  72.908  1.00  0.00     0.000 HD 
HETATM   10  O   UNL     2      -5.939   8.290  72.542  1.00  0.00    -0.050 OA 
ENDBRANCH   2   8
BRANCH   2  11
HETATM   11  C   UNL     2      -5.805  10.738  70.021  1.00  0.00    -0.083 C  
HETATM   12  H   UNL     2      -5.724   9.596  68.413  1.00  0.00     0.000 HD 
HETATM   13  O   UNL     2      -5.798   9.485  69.353  1.00  0.00    -0.034 OA 
BRANCH  11  14
HETATM   14  C   UNL     2      -6.912  11.611  69.343  1.00  0.00    -0.051 C  
HETATM   15  H   UNL     2      -7.899  11.547  67.695  1.00  0.00     0.000 HD 
HETATM   16  O   UNL     2      -7.227  11.017  68.107  1.00  0.00    -0.079 OA 
BRANCH  14  17
HETATM   17  C   UNL     2      -6.531  13.089  69.086  1.00  0.00    -0.108 C  
HETATM   18  C   UNL     2      -7.148  13.605  67.797  1.00  0.00    -0.161 C  
HETATM   19  H   UNL     2      -4.901  14.107  68.838  1.00  0.00     0.000 HD 
HETATM   20  O   UNL     2      -5.134  13.200  68.996  1.00  0.00    -0.069 OA 
HETATM   21  O   UNL     2      -6.961  14.884  67.432  1.00  0.00    -0.189 OA 
HETATM   22  O   UNL     2      -7.884  12.898  67.110  1.00  0.00    -0.156 OA 
ENDBRANCH  14  17
ENDBRANCH  11  14
ENDBRANCH   2  11
BRANCH   3  23
HETATM   23  C   UNL     3     -12.178  17.046  67.280  1.00  0.00     2.738 C  
HETATM   24  O   UNL     3     -12.407  16.926  65.895  1.00  0.00     3.098 OA 
HETATM   25  H   UNL     3     -13.217  16.434  65.829  1.00  0.00     0.000 HD 
BRANCH  23  26
HETATM   26  C   UNL     3     -12.578  15.633  67.905  1.00  0.00     1.488 C  
HETATM   27  O   UNL     3     -13.013  15.943  69.206  1.00  0.00    -0.195 OA 
HETATM   28  H   UNL     3     -13.251  15.102  69.579  1.00  0.00     0.000 HD 
BRANCH  26  29
HETATM   29  C   UNL     3     -11.611  14.369  68.117  1.00  0.00    -0.329 C  
HETATM   30  C   UNL     3     -11.842  13.414  69.254  1.00  0.00    -0.334 C  
HETATM   31  O   UNL     3     -10.264  14.772  68.249  1.00  0.00    -0.220 OA 
HETATM   32  O   UNL     3     -11.700  13.824  70.527  1.00  0.00    -0.248 OA 
HETATM   33  O   UNL     3     -12.006  12.226  69.022  1.00  0.00    -0.300 OA 
HETATM   34  H   UNL     3      -9.692  14.024  68.375  1.00  0.00     0.000 HD 
ENDBRANCH  26  29
ENDBRANCH  23  26
ENDBRANCH   3  23
BRANCH   3  35
HETATM   35  C   UNL     3      -9.471  17.117  67.164  1.00  0.00    -0.248 C  
HETATM   36  O   UNL     3      -8.419  17.994  66.888  1.00  0.00    -0.234 OA 
HETATM   37  H   UNL     3      -7.596  17.541  66.751  1.00  0.00     0.000 HD 
ENDBRANCH   3  35
TORSDOF 8
ENDMDL
