MODEL        8
REMARK 921   NORMALIZED FREE ENERGY PREDICTED BY IDOCK:   -7.17 KCAL/MOL
REMARK 922        TOTAL FREE ENERGY PREDICTED BY IDOCK:  -10.99 KCAL/MOL
REMARK 923 INTER-LIGAND FREE ENERGY PREDICTED BY IDOCK:   -9.83 KCAL/MOL
REMARK 924 INTRA-LIGAND FREE ENERGY PREDICTED BY IDOCK:   -1.16 KCAL/MOL
REMARK 927      BINDING AFFINITY PREDICTED BY RF-SCORE:    0.00 PKD
ROOT
HETATM    1  C   UNL     1      -9.095  10.738  68.683  1.00  0.00    -0.173 C  
HETATM    2  C   UNL     1      -8.937   9.827  67.453  1.00  0.00    -0.144 C  
HETATM    3  C   UNL     1      -7.910   8.731  67.803  1.00  0.00    -0.102 C  
HETATM    4  C   UNL     1      -8.672   7.851  68.815  1.00  0.00    -0.128 C  
HETATM    5  C   UNL     1     -10.048   8.541  68.907  1.00  0.00    -0.213 C  
HETATM    6  C   UNL     1     -10.229   9.007  67.459  1.00  0.00    -0.302 C  
HETATM    7  C   UNL     1      -9.852   9.856  69.680  1.00  0.00    -0.255 C  
HETATM    8  C   UNL     1     -11.135  10.595  69.937  1.00  0.00    -0.298 C  
HETATM    9  O   UNL     1     -12.056  10.164  70.613  1.00  0.00    -0.286 OA 
HETATM   10  N   UNL     1     -11.102  11.784  69.266  1.00  0.00    -0.238 N  
HETATM   11  O   UNL     1      -9.819  12.777  67.611  1.00  0.00    -0.205 OA 
HETATM   12  C   UNL     1     -10.016  11.902  68.441  1.00  0.00    -0.203 C  
ENDROOT
BRANCH  10  13
HETATM   13  C   UNL     1     -12.201  12.737  69.270  1.00  0.00    -0.054 C  
BRANCH  13  14
HETATM   14  C   UNL     1     -12.179  13.647  70.518  1.00  0.00    -0.438 C  
HETATM   15  C   UNL     1     -13.305  13.235  71.487  1.00  0.00    -0.330 C  
HETATM   16  C   UNL     1     -13.276  14.056  72.769  1.00  0.00    -0.580 C  
HETATM   17  C   UNL     1     -13.316  15.549  72.476  1.00  0.00    -0.591 C  
HETATM   18  C   UNL     1     -12.208  15.967  71.513  1.00  0.00    -0.525 C  
HETATM   19  C   UNL     1     -12.279  15.171  70.193  1.00  0.00    -0.395 C  
BRANCH  19  20
HETATM   20  C   UNL     1     -11.173  15.610  69.205  1.00  0.00    -0.315 C  
BRANCH  20  21
HETATM   21  N   UNL     1     -10.142  16.535  69.712  1.00  0.00    -0.101 NA 
HETATM   22  C   UNL     1      -8.792  16.068  69.286  1.00  0.00    -0.227 C  
HETATM   23  C   UNL     1      -8.576  16.096  67.759  1.00  0.00    -0.167 C  
HETATM   24  N   UNL     1      -8.830  17.432  67.194  1.00  0.00    -0.227 NA 
HETATM   25  C   UNL     1     -10.034  18.126  67.687  1.00  0.00    -0.337 C  
HETATM   26  C   UNL     1     -10.282  17.921  69.205  1.00  0.00    -0.185 C  
BRANCH  24  27
HETATM   27  C   UNL     1      -7.749  18.156  66.763  1.00  0.00    -0.225 A  
HETATM   28  N   UNL     1      -7.401  18.236  65.480  1.00  0.00    -0.535 NA 
HETATM   29  S   UNL     1      -6.157  19.299  65.309  1.00  0.00    -0.276 SA 
HETATM   30  C   UNL     1      -6.039  19.733  66.962  1.00  0.00    -0.176 A  
HETATM   31  C   UNL     1      -5.191  20.671  67.575  1.00  0.00    -0.223 A  
HETATM   32  C   UNL     1      -5.294  20.857  68.955  1.00  0.00    -0.394 A  
HETATM   33  C   UNL     1      -6.213  20.131  69.701  1.00  0.00    -0.377 A  
HETATM   34  C   UNL     1      -7.060  19.208  69.077  1.00  0.00    -0.377 A  
HETATM   35  C   UNL     1      -6.979  18.987  67.677  1.00  0.00    -0.230 A  
ENDBRANCH  24  27
ENDBRANCH  20  21
ENDBRANCH  19  20
ENDBRANCH  13  14
ENDBRANCH  10  13
TORSDOF 5
ENDMDL
