MODEL      188
REMARK 921   NORMALIZED FREE ENERGY PREDICTED BY IDOCK:   -4.31 KCAL/MOL
REMARK 922        TOTAL FREE ENERGY PREDICTED BY IDOCK:   -6.87 KCAL/MOL
REMARK 923 INTER-LIGAND FREE ENERGY PREDICTED BY IDOCK:   -6.54 KCAL/MOL
REMARK 924 INTRA-LIGAND FREE ENERGY PREDICTED BY IDOCK:   -0.33 KCAL/MOL
REMARK 927      BINDING AFFINITY PREDICTED BY RF-SCORE:    0.00 PKD
ROOT
HETATM    1  C   UNL     1      -9.010  15.343  67.291  1.00  0.00    -0.213 C  
HETATM    2  C   UNL     1     -10.436  15.419  67.857  1.00  0.00    -0.256 C  
ENDROOT
BRANCH   2   3
HETATM    3  N   UNL     1     -10.712  16.744  68.459  1.00  0.00    -0.345 NA 
HETATM    4  H   UNL     1     -11.402  16.650  69.205  1.00  0.00     0.000 HD 
BRANCH   3   5
HETATM    5  C   UNL     1      -9.542  17.473  68.950  1.00  0.00    -0.224 C  
BRANCH   5   6
HETATM    6  C   UNL     1      -9.640  18.990  68.734  1.00  0.00    -0.451 C  
BRANCH   6   7
HETATM    7  C   UNL     1      -8.545  19.499  67.832  1.00  0.00    -0.357 A  
HETATM    8  C   UNL     1      -7.447  20.185  68.372  1.00  0.00    -0.200 A  
HETATM    9  C   UNL     1      -6.552  20.505  66.165  1.00  0.00    -0.235 A  
HETATM   10  C   UNL     1      -6.448  20.685  67.539  1.00  0.00    -0.346 A  
HETATM   11  O   UNL     1      -5.606  20.990  65.312  1.00  0.00    -0.214 OA 
HETATM   12  C   UNL     1      -7.631  19.821  65.614  1.00  0.00    -0.223 A  
HETATM   13  H   UNL     1      -5.677  20.868  64.373  1.00  0.00     0.000 HD 
HETATM   14  C   UNL     1      -8.631  19.320  66.446  1.00  0.00    -0.355 A  
ENDBRANCH   6   7
ENDBRANCH   5   6
ENDBRANCH   3   5
ENDBRANCH   2   3
BRANCH   2  15
HETATM   15  C   UNL     1     -10.703  14.323  68.937  1.00  0.00    -0.257 C  
HETATM   16  O   UNL     1     -11.306  13.168  68.337  1.00  0.00    -0.251 OA 
HETATM   17  H   UNL     1     -11.468  12.501  68.994  1.00  0.00     0.000 HD 
BRANCH  15  18
HETATM   18  C   UNL     1     -11.534  14.817  70.108  1.00  0.00    -0.313 A  
HETATM   19  C   UNL     1     -12.937  14.816  70.025  1.00  0.00     0.017 A  
HETATM   20  C   UNL     1     -11.706  15.690  72.372  1.00  0.00    -0.574 A  
HETATM   21  H   UNL     1     -13.380  16.470  74.114  1.00  0.00     0.000 HD 
HETATM   22  C   UNL     1     -13.714  15.262  71.098  1.00  0.00    -0.519 A  
HETATM   23  C   UNL     1     -13.089  15.705  72.259  1.00  0.00    -0.456 A  
HETATM   24  C   UNL     1     -10.930  15.246  71.303  1.00  0.00    -0.210 A  
HETATM   25  O   UNL     1     -13.806  16.167  73.322  1.00  0.00    -0.559 OA 
ENDBRANCH  15  18
ENDBRANCH   2  15
TORSDOF 6
ENDMDL
