MODEL       19
REMARK 921   NORMALIZED FREE ENERGY PREDICTED BY IDOCK:   -7.28 KCAL/MOL
REMARK 922        TOTAL FREE ENERGY PREDICTED BY IDOCK:  -11.62 KCAL/MOL
REMARK 923 INTER-LIGAND FREE ENERGY PREDICTED BY IDOCK:  -10.92 KCAL/MOL
REMARK 924 INTRA-LIGAND FREE ENERGY PREDICTED BY IDOCK:   -0.70 KCAL/MOL
REMARK 927      BINDING AFFINITY PREDICTED BY RF-SCORE:    0.00 PKD
ROOT
HETATM    1  C   UNL     1     -10.289  14.257  65.254  1.00  0.00    -0.417 C  
HETATM    2  C   UNL     1     -11.175  13.297  66.075  1.00  0.00    -0.297 C  
HETATM    3  S   UNL     1     -12.019  14.321  67.371  1.00  0.00    -0.342 SA 
HETATM    4  C   UNL     1     -12.202  12.723  65.092  1.00  0.00    -0.530 C  
HETATM    5  C   UNL     1     -10.768  13.932  68.687  1.00  0.00    -0.260 C  
HETATM    6  C   UNL     1      -9.556  14.894  68.843  1.00  0.00    -0.215 C  
HETATM    7  C   UNL     1     -10.357  12.251  66.879  1.00  0.00    -0.216 C  
HETATM    8  C   UNL     1      -8.802  13.831  68.001  1.00  0.00    -0.182 C  
HETATM    9  O   UNL     1      -7.785  13.788  67.347  1.00  0.00    -0.169 OA 
HETATM   10  N   UNL     1      -9.851  12.960  68.062  1.00  0.00    -0.218 N  
ENDROOT
BRANCH   6  11
HETATM   11  N   UNL     1      -9.695  16.255  68.258  1.00  0.00    -0.219 N  
HETATM   12  C   UNL     1      -8.747  17.229  68.483  1.00  0.00    -0.273 C  
HETATM   13  O   UNL     1      -7.671  16.982  69.027  1.00  0.00    -0.239 OA 
HETATM   14  H   UNL     1     -10.508  16.471  67.681  1.00  0.00     0.000 HD 
BRANCH  12  15
HETATM   15  C   UNL     1      -9.147  18.653  68.035  1.00  0.00    -0.305 C  
HETATM   16  H2  UNL     1     -11.148  18.130  67.708  1.00  0.00     0.000 HD 
HETATM   17  N   UNL     1     -10.389  18.604  67.218  1.00  0.00    -0.379 NA 
HETATM   18  H1  UNL     1     -10.653  19.543  66.923  1.00  0.00     0.000 HD 
BRANCH  15  19
HETATM   19  C   UNL     1      -8.030  19.401  67.328  1.00  0.00    -0.292 A  
HETATM   20  C   UNL     1      -7.765  19.231  65.958  1.00  0.00    -0.293 A  
HETATM   21  C   UNL     1      -7.266  20.339  68.043  1.00  0.00    -0.297 A  
HETATM   22  C   UNL     1      -6.318  21.132  67.391  1.00  0.00    -0.430 A  
HETATM   23  C   UNL     1      -6.823  20.030  65.308  1.00  0.00    -0.328 A  
HETATM   24  C   UNL     1      -6.111  20.990  66.021  1.00  0.00    -0.304 A  
ENDBRANCH  15  19
ENDBRANCH  12  15
ENDBRANCH   6  11
BRANCH   7  25
HETATM   25  C   UNL     1     -11.172  11.052  67.415  1.00  0.00    -0.285 C  
HETATM   26  O   UNL     1     -12.134  11.127  68.172  1.00  0.00    -0.633 OA 
BRANCH  25  27
HETATM   27  O   UNL     1     -10.680   9.867  66.950  1.00  0.00    -0.203 OA 
BRANCH  27  28
HETATM   28  C   UNL     1      -9.450   9.453  67.553  1.00  0.00    -0.127 C  
BRANCH  28  29
HETATM   29  O   UNL     1      -9.663   9.018  68.893  1.00  0.00    -0.158 OA 
BRANCH  29  30
HETATM   30  C   UNL     1      -9.144   7.807  69.219  1.00  0.00    -0.145 C  
HETATM   31  O   UNL     1      -8.115   7.343  68.748  1.00  0.00    -0.124 OA 
BRANCH  30  32
HETATM   32  C   UNL     1     -10.005   7.095  70.286  1.00  0.00    -0.187 C  
HETATM   33  N   UNL     1     -11.016   8.037  70.792  1.00  0.00    -0.244 N  
HETATM   34  C   UNL     1     -10.624   8.948  71.902  1.00  0.00    -0.349 C  
HETATM   35  S   UNL     1      -9.113   8.161  72.502  1.00  0.00    -0.259 S  
HETATM   36  C   UNL     1     -11.969   8.625  72.555  1.00  0.00    -0.358 C  
HETATM   37  O   UNL     1      -7.974   8.928  72.027  1.00  0.00    -0.350 OA 
HETATM   38  O   UNL     1      -9.243   7.837  73.908  1.00  0.00    -0.274 OA 
HETATM   39  C   UNL     1      -9.199   6.624  71.520  1.00  0.00    -0.146 C  
HETATM   40  C   UNL     1     -12.157   7.622  71.409  1.00  0.00    -0.316 C  
HETATM   41  C   UNL     1      -7.792   6.080  71.236  1.00  0.00    -0.112 C  
HETATM   42  C   UNL     1      -9.941   5.529  72.316  1.00  0.00    -0.211 C  
HETATM   43  O   UNL     1     -12.854   6.662  71.184  1.00  0.00    -0.233 OA 
ENDBRANCH  30  32
ENDBRANCH  29  30
ENDBRANCH  28  29
ENDBRANCH  27  28
ENDBRANCH  25  27
ENDBRANCH   7  25
TORSDOF 9
ENDMDL
