MODEL        4
REMARK 921   NORMALIZED FREE ENERGY PREDICTED BY IDOCK:   -7.09 KCAL/MOL
REMARK 922        TOTAL FREE ENERGY PREDICTED BY IDOCK:  -12.32 KCAL/MOL
REMARK 923 INTER-LIGAND FREE ENERGY PREDICTED BY IDOCK:  -11.78 KCAL/MOL
REMARK 924 INTRA-LIGAND FREE ENERGY PREDICTED BY IDOCK:   -0.53 KCAL/MOL
REMARK 927      BINDING AFFINITY PREDICTED BY RF-SCORE:    0.00 PKD
ROOT
HETATM    1  C   UNL     1      -9.249   3.359  70.788  1.00  0.00    -0.203 C  
HETATM    2  C   UNL     1     -10.096   4.582  70.948  1.00  0.00    -0.158 A  
HETATM    3  N   UNL     1     -10.507   4.902  72.201  1.00  0.00    -0.206 NA 
HETATM    4  C   UNL     1     -11.301   5.998  72.300  1.00  0.00    -0.303 A  
HETATM    5  C   UNL     1     -11.669   6.751  71.195  1.00  0.00    -0.345 A  
HETATM    6  C   UNL     1     -10.459   5.354  69.845  1.00  0.00    -0.308 A  
HETATM    7  N   UNL     1     -11.251   6.454  69.931  1.00  0.00    -0.388 NA 
ENDROOT
BRANCH   5   8
HETATM    8  C   UNL     1     -12.588   7.909  71.376  1.00  0.00    -0.300 C  
HETATM    9  O   UNL     1     -13.731   7.746  71.787  1.00  0.00    -0.347 OA 
HETATM   10  N   UNL     1     -12.069   9.143  71.031  1.00  0.00    -0.363 N  
HETATM   11  H   UNL     1     -11.085   9.216  70.774  1.00  0.00     0.000 HD 
BRANCH  10  12
HETATM   12  C   UNL     1     -12.892  10.336  71.027  1.00  0.00    -0.397 C  
BRANCH  12  13
HETATM   13  C   UNL     1     -12.071  11.632  70.918  1.00  0.00    -0.312 C  
BRANCH  13  14
HETATM   14  C   UNL     1     -11.897  12.155  69.503  1.00  0.00    -0.386 A  
HETATM   15  C   UNL     1     -11.962  13.525  69.212  1.00  0.00    -0.378 A  
HETATM   16  C   UNL     1     -11.846  13.989  67.900  1.00  0.00    -0.411 A  
HETATM   17  C   UNL     1     -11.600  13.092  66.863  1.00  0.00    -0.366 A  
HETATM   18  C   UNL     1     -11.481  11.726  67.135  1.00  0.00    -0.366 A  
HETATM   19  C   UNL     1     -11.623  11.264  68.449  1.00  0.00    -0.378 A  
BRANCH  17  20
HETATM   20  S   UNL     1     -11.589  13.686  65.187  1.00  0.00    -0.334 S  
HETATM   21  O   UNL     1     -12.860  14.314  64.901  1.00  0.00    -0.680 OA 
HETATM   22  O   UNL     1     -11.106  12.604  64.351  1.00  0.00    -0.308 OA 
BRANCH  20  23
HETATM   23  N   UNL     1     -10.375  14.824  65.151  1.00  0.00    -0.406 N  
HETATM   24  H   UNL     1      -9.413  14.490  65.091  1.00  0.00     0.000 HD 
BRANCH  23  25
HETATM   25  C   UNL     1     -10.579  16.191  65.197  1.00  0.00    -0.343 C  
HETATM   26  O   UNL     1     -11.270  16.793  64.391  1.00  0.00    -1.112 OA 
BRANCH  25  27
HETATM   27  N   UNL     1      -9.948  16.800  66.246  1.00  0.00    -0.305 N  
HETATM   28  H   UNL     1      -9.057  16.432  66.580  1.00  0.00     0.000 HD 
BRANCH  27  29
HETATM   29  C   UNL     1     -10.535  17.969  66.892  1.00  0.00    -0.341 C  
HETATM   30  C   UNL     1     -10.122  18.061  68.366  1.00  0.00    -0.392 C  
HETATM   31  C   UNL     1      -8.680  18.527  68.557  1.00  0.00    -0.352 C  
HETATM   32  C   UNL     1      -8.404  19.828  67.811  1.00  0.00    -0.344 C  
HETATM   33  C   UNL     1      -8.760  19.715  66.333  1.00  0.00    -0.404 C  
HETATM   34  C   UNL     1     -10.206  19.263  66.135  1.00  0.00    -0.549 C  
ENDBRANCH  27  29
ENDBRANCH  25  27
ENDBRANCH  23  25
ENDBRANCH  20  23
ENDBRANCH  17  20
ENDBRANCH  13  14
ENDBRANCH  12  13
ENDBRANCH  10  12
ENDBRANCH   5   8
TORSDOF 9
ENDMDL
