MODEL       26
REMARK 921   NORMALIZED FREE ENERGY PREDICTED BY IDOCK:   -5.42 KCAL/MOL
REMARK 922        TOTAL FREE ENERGY PREDICTED BY IDOCK:   -9.76 KCAL/MOL
REMARK 923 INTER-LIGAND FREE ENERGY PREDICTED BY IDOCK:   -8.81 KCAL/MOL
REMARK 924 INTRA-LIGAND FREE ENERGY PREDICTED BY IDOCK:   -0.95 KCAL/MOL
REMARK 927      BINDING AFFINITY PREDICTED BY RF-SCORE:    0.00 PKD
ROOT
HETATM    1  N   UNL     1     -12.284   6.118  72.606  1.00  0.00    -0.527 NA 
HETATM    2  H   UNL     1     -13.243   5.949  72.909  1.00  0.00     0.000 HD 
HETATM    3  C   UNL     1     -11.221   5.189  72.956  1.00  0.00    -0.322 C  
ENDROOT
BRANCH   1   4
HETATM    4  C   UNL     1     -11.966   7.246  71.845  1.00  0.00    -0.306 A  
HETATM    5  C   UNL     1     -12.354   8.547  72.176  1.00  0.00    -0.444 A  
HETATM    6  C   UNL     1     -12.017   9.626  71.352  1.00  0.00    -0.480 A  
HETATM    7  C   UNL     1     -11.251   9.436  70.197  1.00  0.00    -0.253 A  
HETATM    8  C   UNL     1     -10.809   8.144  69.898  1.00  0.00    -0.215 A  
HETATM    9  C   UNL     1     -11.145   7.069  70.727  1.00  0.00    -0.307 A  
BRANCH   7  10
HETATM   10  C   UNL     1     -11.016  10.581  69.306  1.00  0.00    -0.291 C  
HETATM   11  C   UNL     1     -11.988  11.297  68.717  1.00  0.00    -0.350 C  
BRANCH  11  12
HETATM   12  C   UNL     1     -11.747  12.466  67.864  1.00  0.00    -0.421 A  
HETATM   13  C   UNL     1     -11.357  12.380  66.529  1.00  0.00    -0.340 A  
HETATM   14  N   UNL     1     -11.100  13.441  65.726  1.00  0.00    -0.282 NA 
HETATM   15  C   UNL     1     -11.196  14.660  66.291  1.00  0.00    -0.340 A  
HETATM   16  C   UNL     1     -11.834  13.749  68.404  1.00  0.00    -0.411 A  
HETATM   17  C   UNL     1     -11.548  14.866  67.615  1.00  0.00    -0.357 A  
BRANCH  15  18
HETATM   18  O   UNL     1     -10.906  15.786  65.550  1.00  0.00    -0.344 OA 
BRANCH  18  19
HETATM   19  C   UNL     1      -9.973  16.652  66.209  1.00  0.00    -0.320 C  
BRANCH  19  20
HETATM   20  C   UNL     1     -10.384  18.103  65.967  1.00  0.00    -0.353 C  
BRANCH  20  21
HETATM   21  O   UNL     1     -10.543  18.764  67.226  1.00  0.00    -0.412 OA 
BRANCH  21  22
HETATM   22  C   UNL     1     -10.063  20.105  67.185  1.00  0.00    -0.450 C  
BRANCH  22  23
HETATM   23  C   UNL     1      -8.565  20.106  67.467  1.00  0.00    -0.336 C  
BRANCH  23  24
HETATM   24  O   UNL     1      -8.290  19.234  68.564  1.00  0.00    -0.344 OA 
BRANCH  24  25
HETATM   25  C   UNL     1      -7.203  18.355  68.271  1.00  0.00    -0.263 C  
HETATM   26  C   UNL     1      -7.469  16.998  68.896  1.00  0.00    -0.237 C  
HETATM   27  F   UNL     1      -6.433  16.164  68.618  1.00  0.00    -0.111 F  
ENDBRANCH  24  25
ENDBRANCH  23  24
ENDBRANCH  22  23
ENDBRANCH  21  22
ENDBRANCH  20  21
ENDBRANCH  19  20
ENDBRANCH  18  19
ENDBRANCH  15  18
ENDBRANCH  11  12
ENDBRANCH   7  10
ENDBRANCH   1   4
TORSDOF 11
ENDMDL
