MODEL       11
REMARK 921   NORMALIZED FREE ENERGY PREDICTED BY IDOCK:   -6.97 KCAL/MOL
REMARK 922        TOTAL FREE ENERGY PREDICTED BY IDOCK:  -10.17 KCAL/MOL
REMARK 923 INTER-LIGAND FREE ENERGY PREDICTED BY IDOCK:   -9.84 KCAL/MOL
REMARK 924 INTRA-LIGAND FREE ENERGY PREDICTED BY IDOCK:   -0.33 KCAL/MOL
REMARK 927      BINDING AFFINITY PREDICTED BY RF-SCORE:    0.00 PKD
ROOT
HETATM    1  C   UNL     1      -9.804   9.317  66.826  1.00  0.00    -0.289 C  
HETATM    2  C   UNL     1      -9.839  10.721  67.441  1.00  0.00    -0.204 C  
HETATM    3  C   UNL     1     -10.264  10.733  68.917  1.00  0.00    -0.203 C  
HETATM    4  C   UNL     1     -10.831  11.588  66.677  1.00  0.00    -0.287 C  
HETATM    5  O   UNL     1     -11.891  11.128  66.256  1.00  0.00    -0.009 OA 
HETATM    6  C   UNL     1     -11.821  13.695  64.392  1.00  0.00    -0.424 C  
HETATM    7  N   UNL     1     -10.518  12.908  66.438  1.00  0.00    -0.263 N  
HETATM    8  C   UNL     1      -9.317  13.627  66.840  1.00  0.00    -0.257 C  
HETATM    9  C   UNL     1     -11.525  13.840  65.893  1.00  0.00    -0.322 C  
HETATM   10  C   UNL     1      -9.792  15.054  67.115  1.00  0.00    -0.233 C  
HETATM   11  C   UNL     1     -10.948  15.245  66.134  1.00  0.00    -0.307 C  
HETATM   12  O   UNL     1     -11.146  12.706  63.767  1.00  0.00    -0.402 OA 
HETATM   13  O   UNL     1     -12.580  14.441  63.781  1.00  0.00    -0.829 OA 
ENDROOT
BRANCH   3  14
HETATM   14  S   UNL     1      -9.128   9.743  69.926  1.00  0.00    -0.214 SA 
BRANCH  14  15
HETATM   15  C   UNL     1     -10.094   8.297  70.204  1.00  0.00    -0.191 C  
HETATM   16  O   UNL     1      -9.687   7.183  69.898  1.00  0.00    -0.170 OA 
BRANCH  15  17
HETATM   17  C   UNL     1     -11.416   8.498  70.867  1.00  0.00    -0.302 A  
HETATM   18  C   UNL     1     -11.811   9.738  71.394  1.00  0.00    -0.488 A  
HETATM   19  C   UNL     1     -13.052   9.879  72.017  1.00  0.00    -0.545 A  
HETATM   20  C   UNL     1     -13.911   8.787  72.112  1.00  0.00    -0.522 A  
HETATM   21  C   UNL     1     -12.293   7.408  70.955  1.00  0.00    -0.303 A  
HETATM   22  C   UNL     1     -13.534   7.554  71.581  1.00  0.00    -0.429 A  
ENDBRANCH  15  17
ENDBRANCH  14  15
ENDBRANCH   3  14
BRANCH  10  23
HETATM   23  S   UNL     1      -8.404  16.225  66.893  1.00  0.00    -0.261 SA 
BRANCH  23  24
HETATM   24  C   UNL     1      -9.150  17.812  67.227  1.00  0.00    -0.246 A  
HETATM   25  C   UNL     1      -9.610  18.669  66.222  1.00  0.00    -0.295 A  
HETATM   26  C   UNL     1     -10.368  20.257  67.884  1.00  0.00    -0.395 A  
HETATM   27  C   UNL     1     -10.208  19.890  66.549  1.00  0.00    -0.611 A  
HETATM   28  C   UNL     1      -9.933  19.402  68.893  1.00  0.00    -0.519 A  
HETATM   29  C   UNL     1      -9.332  18.185  68.566  1.00  0.00    -0.321 A  
ENDBRANCH  23  24
ENDBRANCH  10  23
TORSDOF 5
ENDMDL
