MODEL       17
REMARK 921   NORMALIZED FREE ENERGY PREDICTED BY IDOCK:   -6.54 KCAL/MOL
REMARK 922        TOTAL FREE ENERGY PREDICTED BY IDOCK:  -11.80 KCAL/MOL
REMARK 923 INTER-LIGAND FREE ENERGY PREDICTED BY IDOCK:  -10.86 KCAL/MOL
REMARK 924 INTRA-LIGAND FREE ENERGY PREDICTED BY IDOCK:   -0.94 KCAL/MOL
REMARK 927      BINDING AFFINITY PREDICTED BY RF-SCORE:    0.00 PKD
ROOT
HETATM    1  C   UNL     1     -10.677  13.178  68.540  1.00  0.00    -0.259 C  
ENDROOT
BRANCH   1   2
HETATM    2  C   UNL     1     -11.710  12.765  69.626  1.00  0.00    -0.372 C  
BRANCH   2   3
HETATM    3  C   UNL     1     -11.661  11.367  70.205  1.00  0.00    -0.414 A  
HETATM    4  C   UNL     1     -11.279   8.848  71.495  1.00  0.00    -0.396 A  
HETATM    5  C   UNL     1     -12.601  10.866  71.103  1.00  0.00    -0.532 A  
HETATM    6  C   UNL     1     -12.393   9.656  71.760  1.00  0.00    -0.474 A  
HETATM    7  C   UNL     1     -10.595  10.532  69.850  1.00  0.00    -0.261 A  
HETATM    8  C   UNL     1     -10.418   9.287  70.471  1.00  0.00    -0.312 A  
BRANCH   4   9
HETATM    9  C   UNL     1     -11.008   7.641  72.301  1.00  0.00    -0.328 A  
HETATM   10  C   UNL     1     -11.748   6.455  72.129  1.00  0.00    -0.366 A  
HETATM   11  C   UNL     1     -11.571   5.350  72.965  1.00  0.00    -0.268 A  
HETATM   12  C   UNL     1     -10.623   5.392  73.981  1.00  0.00    -0.305 A  
HETATM   13  C   UNL     1      -9.857   6.540  74.163  1.00  0.00    -0.318 A  
HETATM   14  C   UNL     1     -10.053   7.651  73.335  1.00  0.00    -0.379 A  
ENDBRANCH   4   9
ENDBRANCH   2   3
ENDBRANCH   1   2
BRANCH   1  15
HETATM   15  C   UNL     1     -10.207  14.652  68.591  1.00  0.00    -0.244 C  
HETATM   16  C   UNL     1     -10.661  17.081  68.366  1.00  0.00    -0.375 C  
HETATM   17  C   UNL     1     -12.270  15.696  69.646  1.00  0.00    -0.264 C  
HETATM   18  C   UNL     1     -11.304  15.709  68.467  1.00  0.00    -0.361 C  
HETATM   19  O   UNL     1     -10.370  17.786  69.321  1.00  0.00    -0.318 OA 
BRANCH  16  20
HETATM   20  O   UNL     1     -10.504  17.422  67.056  1.00  0.00    -0.321 OA 
BRANCH  20  21
HETATM   21  C   UNL     1     -10.656  18.819  66.770  1.00  0.00    -0.395 C  
HETATM   22  C   UNL     1      -9.302  19.350  66.336  1.00  0.00    -0.419 C  
ENDBRANCH  20  21
ENDBRANCH  16  20
ENDBRANCH   1  15
BRANCH   1  23
HETATM   23  N   UNL     1     -11.143  12.873  67.184  1.00  0.00    -0.266 N  
HETATM   24  C   UNL     1     -10.457  12.049  66.333  1.00  0.00    -0.233 C  
HETATM   25  H   UNL     1     -12.015  13.292  66.860  1.00  0.00     0.000 HD 
HETATM   26  O   UNL     1      -9.373  11.522  66.579  1.00  0.00    -0.186 OA 
BRANCH  24  27
HETATM   27  C   UNL     1     -11.044  11.925  64.952  1.00  0.00    -0.363 C  
BRANCH  27  28
HETATM   28  C   UNL     1     -11.052  13.291  64.296  1.00  0.00    -0.414 C  
HETATM   29  O   UNL     1     -12.239  15.353  64.122  1.00  0.00    -0.598 OA 
HETATM   30  C   UNL     1     -12.240  14.200  64.538  1.00  0.00    -0.445 C  
HETATM   31  O   UNL     1     -13.293  13.715  65.215  1.00  0.00    -0.669 OA 
ENDBRANCH  27  28
ENDBRANCH  24  27
ENDBRANCH   1  23
TORSDOF 9
ENDMDL
