MODEL      291
REMARK 921   NORMALIZED FREE ENERGY PREDICTED BY IDOCK:   -3.58 KCAL/MOL
REMARK 922        TOTAL FREE ENERGY PREDICTED BY IDOCK:  -12.14 KCAL/MOL
REMARK 923 INTER-LIGAND FREE ENERGY PREDICTED BY IDOCK:   -9.93 KCAL/MOL
REMARK 924 INTRA-LIGAND FREE ENERGY PREDICTED BY IDOCK:   -2.21 KCAL/MOL
REMARK 927      BINDING AFFINITY PREDICTED BY RF-SCORE:    0.00 PKD
ROOT
HETATM    1  O   UNL     1      -7.839  15.172  67.612  1.00  0.00    -0.133 OA 
HETATM    2  C   UNL     1      -8.456  14.323  68.578  1.00  0.00    -0.164 C  
HETATM    3  H   UNL     1      -7.258  15.789  68.042  1.00  0.00     0.000 HD 
ENDROOT
BRANCH   2   4
HETATM    4  C   UNL     1      -9.398  13.322  67.882  1.00  0.00    -0.214 C  
BRANCH   4   5
HETATM    5  C   UNL     1      -9.642  13.586  66.392  1.00  0.00    -0.268 C  
BRANCH   5   6
HETATM    6  C   UNL     1     -10.910  12.943  65.783  1.00  0.00    -0.292 C  
HETATM    7  H   UNL     1     -12.481  11.442  62.399  1.00  0.00     0.000 HD 
HETATM    8  C   UNL     1     -10.851  12.437  64.280  1.00  0.00    -0.395 C  
HETATM    9  C   UNL     1     -12.029  13.992  65.766  1.00  0.00    -0.404 C  
HETATM   10  C   UNL     1     -13.053  13.408  64.837  1.00  0.00    -0.009 C  
HETATM   11  O   UNL     1     -12.603  14.198  67.043  1.00  0.00    -0.539 OA 
HETATM   12  O   UNL     1     -12.992  11.795  63.119  1.00  0.00    -0.576 OA 
HETATM   13  H   UNL     1     -13.295  14.848  67.032  1.00  0.00     0.000 HD 
HETATM   14  C   UNL     1     -12.239  12.846  63.691  1.00  0.00    -0.499 C  
BRANCH   8  15
HETATM   15  C   UNL     1     -10.471  10.934  64.090  1.00  0.00    -0.397 C  
BRANCH  15  16
HETATM   16  C   UNL     1      -9.461  10.647  62.994  1.00  0.00    -0.363 C  
HETATM   17  C   UNL     1      -8.155  10.316  63.044  1.00  0.00    -0.157 C  
BRANCH  17  18
HETATM   18  C   UNL     1      -7.272  10.139  64.246  1.00  0.00    -0.108 C  
BRANCH  18  19
HETATM   19  C   UNL     1      -7.116   8.663  64.644  1.00  0.00    -0.081 C  
BRANCH  19  20
HETATM   20  C   UNL     1      -8.318   8.080  65.377  1.00  0.00    -0.161 C  
BRANCH  20  21
HETATM   21  C   UNL     1      -8.144   6.612  65.612  1.00  0.00    -0.125 C  
HETATM   22  O   UNL     1      -7.834   5.774  64.774  1.00  0.00    -0.100 OA 
BRANCH  21  23
HETATM   23  O   UNL     1      -8.530   6.340  66.889  1.00  0.00    -0.109 OA 
BRANCH  23  24
HETATM   24  C   UNL     1      -9.385   5.216  66.909  1.00  0.00    -0.128 C  
BRANCH  24  25
HETATM   25  C   UNL     1     -10.847   5.593  67.016  1.00  0.00    -0.265 C  
BRANCH  25  26
HETATM   26  C   UNL     1     -11.137   6.525  68.190  1.00  0.00    -0.332 C  
BRANCH  26  27
HETATM   27  C   UNL     1     -10.897   8.016  67.911  1.00  0.00     0.026 C  
BRANCH  27  28
HETATM   28  O   UNL     1     -10.605   8.670  69.126  1.00  0.00    -0.224 OA 
HETATM   29  N   UNL     1     -11.006  10.027  69.119  1.00  0.00    -0.228 N  
HETATM   30  O   UNL     1     -10.693  10.617  70.156  1.00  0.00    -0.238 OA 
HETATM   31  O   UNL     1     -11.585  10.440  68.123  1.00  0.00    -0.355 OA 
ENDBRANCH  27  28
ENDBRANCH  26  27
ENDBRANCH  25  26
ENDBRANCH  24  25
ENDBRANCH  23  24
ENDBRANCH  21  23
ENDBRANCH  20  21
ENDBRANCH  19  20
ENDBRANCH  18  19
ENDBRANCH  17  18
ENDBRANCH  15  16
ENDBRANCH   8  15
ENDBRANCH   5   6
ENDBRANCH   4   5
ENDBRANCH   2   4
BRANCH   2  32
HETATM   32  C   UNL     1      -9.215  15.230  69.536  1.00  0.00    -0.196 C  
BRANCH  32  33
HETATM   33  C   UNL     1     -10.676  15.385  69.128  1.00  0.00    -0.246 C  
BRANCH  33  34
HETATM   34  C   UNL     1     -11.553  14.964  70.261  1.00  0.00    -0.332 A  
HETATM   35  C   UNL     1     -12.425  15.372  72.479  1.00  0.00    -0.466 A  
HETATM   36  C   UNL     1     -12.924  13.300  71.332  1.00  0.00    -0.398 A  
HETATM   37  C   UNL     1     -11.674  15.794  71.386  1.00  0.00    -0.508 A  
HETATM   38  C   UNL     1     -12.176  13.717  70.237  1.00  0.00    -0.423 A  
HETATM   39  C   UNL     1     -13.048  14.126  72.452  1.00  0.00    -0.525 A  
ENDBRANCH  33  34
ENDBRANCH  32  33
ENDBRANCH   2  32
TORSDOF 18
ENDMDL
