MODEL       89
REMARK 921   NORMALIZED FREE ENERGY PREDICTED BY IDOCK:   -6.97 KCAL/MOL
REMARK 922        TOTAL FREE ENERGY PREDICTED BY IDOCK:  -12.37 KCAL/MOL
REMARK 923 INTER-LIGAND FREE ENERGY PREDICTED BY IDOCK:  -10.99 KCAL/MOL
REMARK 924 INTRA-LIGAND FREE ENERGY PREDICTED BY IDOCK:   -1.38 KCAL/MOL
REMARK 927      BINDING AFFINITY PREDICTED BY RF-SCORE:    0.00 PKD
ROOT
HETATM    1  C   UNL     1      -8.650  18.934  66.299  1.00  0.00    -0.267 C  
HETATM    2  C   UNL     1     -10.025  18.382  66.722  1.00  0.00    -0.360 C  
HETATM    3  C   UNL     1      -9.929  17.238  67.940  1.00  0.00    -0.297 C  
HETATM    4  N   UNL     1     -10.638  17.751  65.517  1.00  0.00    -0.615 NA 
HETATM    5  C   UNL     1     -10.879  19.640  67.044  1.00  0.00    -0.518 C  
HETATM    6  H2  UNL     1     -10.040  17.045  65.088  1.00  0.00     0.000 HD 
HETATM    7  N   UNL     1      -9.753  15.903  67.560  1.00  0.00    -0.223 N  
HETATM    8  H1  UNL     1     -11.549  17.386  65.798  1.00  0.00     0.000 HD 
HETATM    9  O   UNL     1      -9.970  17.561  69.127  1.00  0.00    -0.281 OA 
HETATM   10  H   UNL     1      -9.879  15.760  66.559  1.00  0.00     0.000 HD 
ENDROOT
BRANCH   7  11
HETATM   11  C   UNL     1      -9.407  14.575  68.321  1.00  0.00    -0.203 C  
BRANCH  11  12
HETATM   12  C   UNL     1      -8.349  13.486  67.817  1.00  0.00    -0.181 C  
BRANCH  12  13
HETATM   13  C   UNL     1      -8.740  12.455  66.652  1.00  0.00    -0.119 A  
HETATM   14  C   UNL     1      -8.097  11.291  66.276  1.00  0.00    -0.108 A  
HETATM   15  C   UNL     1     -11.906  13.261  64.499  1.00  0.00    -0.433 A  
HETATM   16  C   UNL     1     -11.642  12.362  63.469  1.00  0.00    -0.577 A  
HETATM   17  C   UNL     1     -10.556  11.494  63.568  1.00  0.00    -0.487 A  
HETATM   18  N   UNL     1      -8.671  10.791  65.107  1.00  0.00    -0.253 NA 
HETATM   19  C   UNL     1     -11.043  13.362  65.610  1.00  0.00    -0.298 A  
HETATM   20  C   UNL     1      -9.888  12.542  65.716  1.00  0.00    -0.244 A  
HETATM   21  C   UNL     1      -9.724  11.583  64.716  1.00  0.00    -0.219 A  
HETATM   22  H   UNL     1      -8.355   9.957  64.614  1.00  0.00     0.000 HD 
ENDBRANCH  12  13
ENDBRANCH  11  12
BRANCH  11  23
HETATM   23  C   UNL     1     -10.749  13.977  68.821  1.00  0.00    -0.259 C  
HETATM   24  N   UNL     1     -10.748  12.650  69.205  1.00  0.00    -0.436 N  
HETATM   25  H   UNL     1      -9.865  12.146  69.284  1.00  0.00     0.000 HD 
HETATM   26  O   UNL     1     -11.782  14.652  68.786  1.00  0.00    -0.299 OA 
BRANCH  24  27
HETATM   27  C   UNL     1     -11.990  11.972  69.495  1.00  0.00    -0.283 C  
BRANCH  27  28
HETATM   28  N   UNL     1     -12.245  11.010  68.453  1.00  0.00    -0.217 N  
HETATM   29  O   UNL     1     -10.164  10.010  68.557  1.00  0.00    -0.162 OA 
HETATM   30  C   UNL     1     -11.284  10.099  68.078  1.00  0.00    -0.179 C  
HETATM   31  H   UNL     1     -13.151  11.004  67.986  1.00  0.00     0.000 HD 
ENDBRANCH  27  28
BRANCH  27  32
HETATM   32  C   UNL     1     -12.220  11.453  70.930  1.00  0.00    -0.447 C  
BRANCH  32  33
HETATM   33  C   UNL     1     -12.196  10.022  71.442  1.00  0.00    -0.510 A  
HETATM   34  C   UNL     1     -11.920   7.872  72.224  1.00  0.00    -0.337 A  
HETATM   35  H   UNL     1     -13.997   7.464  72.256  1.00  0.00     0.000 HD 
HETATM   36  C   UNL     1     -11.321   6.690  72.687  1.00  0.00    -0.262 A  
HETATM   37  C   UNL     1     -13.428   9.392  71.603  1.00  0.00    -0.394 A  
HETATM   38  C   UNL     1      -9.932   6.649  72.738  1.00  0.00    -0.187 A  
HETATM   39  N   UNL     1     -13.247   8.127  72.061  1.00  0.00    -0.308 NA 
HETATM   40  C   UNL     1      -9.184   7.753  72.333  1.00  0.00    -0.218 A  
HETATM   41  C   UNL     1      -9.804   8.938  71.883  1.00  0.00    -0.364 A  
HETATM   42  C   UNL     1     -11.212   9.023  71.825  1.00  0.00    -0.448 A  
ENDBRANCH  32  33
ENDBRANCH  27  32
ENDBRANCH  24  27
ENDBRANCH  11  23
ENDBRANCH   7  11
TORSDOF 8
ENDMDL
