MODEL      227
REMARK 921   NORMALIZED FREE ENERGY PREDICTED BY IDOCK:   10.92 KCAL/MOL
REMARK 922        TOTAL FREE ENERGY PREDICTED BY IDOCK:   12.33 KCAL/MOL
REMARK 923 INTER-LIGAND FREE ENERGY PREDICTED BY IDOCK:   12.49 KCAL/MOL
REMARK 924 INTRA-LIGAND FREE ENERGY PREDICTED BY IDOCK:   -0.16 KCAL/MOL
REMARK 927      BINDING AFFINITY PREDICTED BY RF-SCORE:    0.00 PKD
ROOT
HETATM    1  C   UNL     1      -8.663   7.824  64.027  1.00  0.00     0.532 C  
HETATM    2  C   UNL     1      -8.764   9.027  64.919  1.00  0.00    -0.200 A  
HETATM    3  C   UNL     1      -9.421  10.156  64.405  1.00  0.00    -0.368 A  
HETATM    4  C   UNL     1      -9.483  11.332  65.140  1.00  0.00    -0.242 A  
HETATM    5  C   UNL     1      -8.871  11.364  66.379  1.00  0.00    -0.192 A  
HETATM    6  N   UNL     1      -8.282  10.281  66.910  1.00  0.00    -0.122 NA 
HETATM    7  C   UNL     1      -8.237   9.109  66.216  1.00  0.00    -0.111 A  
ENDROOT
BRANCH   5   8
HETATM    8  N   UNL     1      -8.878  12.582  67.065  1.00  0.00    -0.207 N  
HETATM    9  C   UNL     1      -8.330  12.792  68.307  1.00  0.00    -0.161 C  
HETATM   10  H   UNL     1      -9.325  13.377  66.607  1.00  0.00     0.000 HD 
HETATM   11  O   UNL     1      -7.731  12.005  69.024  1.00  0.00    -0.039 OA 
BRANCH   9  12
HETATM   12  C   UNL     1      -8.552  14.210  68.801  1.00  0.00    -0.067 C  
HETATM   13  C   UNL     1      -7.333  15.057  69.155  1.00  0.00    -0.164 C  
HETATM   14  C   UNL     1      -8.171  14.484  70.251  1.00  0.00     1.256 C  
BRANCH  12  15
HETATM   15  C   UNL     1      -9.801  14.881  68.225  1.00  0.00    -0.218 A  
HETATM   16  C   UNL     1     -12.192  15.430  68.499  1.00  0.00     0.068 A  
HETATM   17  C   UNL     1     -10.968  15.003  69.024  1.00  0.00    -0.253 A  
HETATM   18  C   UNL     1     -12.233  15.746  67.162  1.00  0.00     1.197 A  
HETATM   19  O   UNL     1     -13.339  16.119  66.465  1.00  0.00     4.564 OA 
HETATM   20  C   UNL     1     -12.776  16.228  65.153  1.00  0.00     2.803 C  
HETATM   21  F   UNL     1     -13.386  15.324  64.342  1.00  0.00     0.333 F  
HETATM   22  F   UNL     1     -13.052  17.462  64.666  1.00  0.00     5.303 F  
HETATM   23  O   UNL     1     -11.360  16.014  65.080  1.00  0.00    -0.201 OA 
HETATM   24  C   UNL     1     -11.108  15.679  66.374  1.00  0.00    -0.123 A  
HETATM   25  C   UNL     1      -9.889  15.266  66.873  1.00  0.00    -0.242 A  
ENDBRANCH  12  15
ENDBRANCH   9  12
ENDBRANCH   5   8
BRANCH   7  26
HETATM   26  C   UNL     1      -7.573   8.013  66.979  1.00  0.00    -0.096 A  
HETATM   27  C   UNL     1      -6.318   8.227  67.592  1.00  0.00    -0.053 A  
HETATM   28  C   UNL     1      -7.505   5.739  67.913  1.00  0.00    -0.078 A  
HETATM   29  O   UNL     1      -7.944   3.760  69.161  1.00  0.00    -0.055 OA 
HETATM   30  C   UNL     1      -8.156   6.752  67.186  1.00  0.00    -0.117 A  
HETATM   31  C   UNL     1      -6.249   5.976  68.474  1.00  0.00    -0.032 A  
HETATM   32  C   UNL     1      -8.179   4.420  68.007  1.00  0.00    -0.094 C  
HETATM   33  O   UNL     1      -8.905   3.988  67.130  1.00  0.00    -0.109 OA 
HETATM   34  C   UNL     1      -5.665   7.229  68.329  1.00  0.00    -0.023 A  
ENDBRANCH   7  26
TORSDOF 4
ENDMDL
