MODEL       38
REMARK 921   NORMALIZED FREE ENERGY PREDICTED BY IDOCK:   -5.55 KCAL/MOL
REMARK 922        TOTAL FREE ENERGY PREDICTED BY IDOCK:   -9.44 KCAL/MOL
REMARK 923 INTER-LIGAND FREE ENERGY PREDICTED BY IDOCK:   -8.43 KCAL/MOL
REMARK 924 INTRA-LIGAND FREE ENERGY PREDICTED BY IDOCK:   -1.00 KCAL/MOL
REMARK 927      BINDING AFFINITY PREDICTED BY RF-SCORE:    0.00 PKD
ROOT
HETATM    1  C   UNK A   0      -8.761  18.802  68.663  1.00  0.00    -0.360 C  
HETATM    2  C   UNK A   0      -9.319  17.446  68.300  1.00  0.00    -0.278 C  
HETATM    3  C   UNK A   0     -10.783  17.232  68.600  1.00  0.00    -0.280 C  
HETATM    4  C   UNK A   0      -8.341  16.319  68.534  1.00  0.00    -0.204 C  
HETATM    5  C   UNK A   0     -10.331  17.332  67.153  1.00  0.00    -0.321 C  
ENDROOT
BRANCH   5   6
HETATM    6  C   UNK A   0     -10.493  16.100  66.312  1.00  0.00    -0.315 C  
HETATM    7  N   UNK A   1     -11.352  15.137  66.789  1.00  0.00    -0.296 N  
HETATM    8  O   UNK A   0      -9.824  15.959  65.296  1.00  0.00    -0.408 OA 
HETATM    9  H   UNK A   1     -11.832  15.360  67.662  1.00  0.00     0.000 HD 
BRANCH   7  10
HETATM   10  C   UNK A   1     -11.648  13.896  66.228  1.00  0.00    -0.365 C  
HETATM   11  C   UNK A   1     -11.028  12.770  66.664  1.00  0.00    -0.300 C  
HETATM   12  C   UNK A   1     -12.603  13.633  65.079  1.00  0.00    -0.390 C  
HETATM   13  O   UNK A   1     -12.701  14.607  64.155  1.00  0.00    -0.738 OA 
HETATM   14  O   UNK A   1     -13.120  12.539  64.894  1.00  0.00    -0.833 OA 
BRANCH  11  15
HETATM   15  C   UNK A   1      -9.961  12.674  67.712  1.00  0.00    -0.218 C  
BRANCH  15  16
HETATM   16  C   UNK A   1     -10.098  11.528  68.732  1.00  0.00    -0.191 C  
BRANCH  16  17
HETATM   17  C   UNK A   1     -11.454  10.858  68.468  1.00  0.00    -0.380 C  
BRANCH  17  18
HETATM   18  C   UNK A   1     -12.369  10.725  69.679  1.00  0.00    -0.192 C  
BRANCH  18  19
HETATM   19  S   UNK A   1     -11.338  10.044  71.032  1.00  0.00    -0.311 SA 
BRANCH  19  20
HETATM   20  C   UNK A   1     -11.563   8.262  70.720  1.00  0.00    -0.236 C  
BRANCH  20  21
HETATM   21  C   UNK A   1     -12.234   7.579  71.922  1.00  0.00    -0.306 C  
HETATM   22  N   UNK A   1     -12.750   8.563  72.929  1.00  0.00    -0.658 NA 
HETATM   23  C   UNK A   1     -11.180   6.706  72.605  1.00  0.00    -0.249 C  
HETATM   24  O   UNK A   1     -10.805   5.617  72.202  1.00  0.00    -0.229 OA 
HETATM   25  O   UNK A   1     -10.666   7.321  73.703  1.00  0.00    -0.378 OA 
HETATM   26  H1  UNK A   1     -13.195   8.111  73.727  1.00  0.00     0.000 HD 
HETATM   27  H2  UNK A   1     -13.378   9.238  72.493  1.00  0.00     0.000 HD 
ENDBRANCH  20  21
ENDBRANCH  19  20
ENDBRANCH  18  19
ENDBRANCH  17  18
ENDBRANCH  16  17
ENDBRANCH  15  16
ENDBRANCH  11  15
ENDBRANCH   7  10
ENDBRANCH   5   6
TORSDOF 9
ENDMDL
