MODEL       55
REMARK 921   NORMALIZED FREE ENERGY PREDICTED BY IDOCK:   -6.22 KCAL/MOL
REMARK 922        TOTAL FREE ENERGY PREDICTED BY IDOCK:  -10.05 KCAL/MOL
REMARK 923 INTER-LIGAND FREE ENERGY PREDICTED BY IDOCK:   -9.04 KCAL/MOL
REMARK 924 INTRA-LIGAND FREE ENERGY PREDICTED BY IDOCK:   -1.01 KCAL/MOL
REMARK 927      BINDING AFFINITY PREDICTED BY RF-SCORE:    0.00 PKD
ROOT
HETATM    1  N   UNL     1     -10.142   2.632  74.485  1.00  0.00    -0.123 N  
HETATM    2  C   UNL     1     -10.244   2.631  73.124  1.00  0.00    -0.132 C  
HETATM    3  H1  UNL     1     -10.095   3.514  74.995  1.00  0.00     0.000 HD 
HETATM    4  H2  UNL     1     -10.113   1.749  74.994  1.00  0.00     0.000 HD 
HETATM    5  O   UNL     1     -10.301   1.570  72.510  1.00  0.00    -0.129 OA 
ENDROOT
BRANCH   2   6
HETATM    6  C   UNL     1     -10.299   3.936  72.511  1.00  0.00    -0.138 A  
HETATM    7  C   UNL     1     -11.055   5.046  72.833  1.00  0.00    -0.348 A  
HETATM    8  C   UNL     1     -10.682   6.072  71.933  1.00  0.00    -0.282 A  
HETATM    9  C   UNL     1     -11.045   7.418  71.742  1.00  0.00    -0.269 A  
HETATM   10  C   UNL     1     -10.468   8.179  70.707  1.00  0.00    -0.202 A  
HETATM   11  C   UNL     1      -9.525   7.540  69.880  1.00  0.00    -0.160 A  
HETATM   12  O   UNL     1      -9.496   4.220  71.434  1.00  0.00    -0.137 OA 
HETATM   13  C   UNL     1      -9.735   5.514  71.089  1.00  0.00    -0.174 A  
HETATM   14  C   UNL     1      -9.131   6.203  70.049  1.00  0.00    -0.151 A  
BRANCH  10  15
HETATM   15  N   UNL     1     -10.839   9.492  70.495  1.00  0.00    -0.266 NA 
HETATM   16  C   UNL     1     -10.209  10.335  69.468  1.00  0.00    -0.236 C  
HETATM   17  N   UNL     1     -12.238  11.868  69.482  1.00  0.00    -0.192 NA 
HETATM   18  C   UNL     1     -11.298  11.068  68.656  1.00  0.00    -0.281 C  
HETATM   19  C   UNL     1     -11.821  10.176  71.355  1.00  0.00    -0.328 C  
HETATM   20  C   UNL     1     -12.839  10.955  70.485  1.00  0.00    -0.220 C  
BRANCH  17  21
HETATM   21  C   UNL     1     -11.578  13.007  70.139  1.00  0.00    -0.064 C  
BRANCH  21  22
HETATM   22  C   UNL     1     -12.569  14.022  70.728  1.00  0.00    -0.431 C  
BRANCH  22  23
HETATM   23  C   UNL     1     -12.188  15.480  70.464  1.00  0.00    -0.444 C  
BRANCH  23  24
HETATM   24  C   UNL     1     -10.704  15.624  70.131  1.00  0.00    -0.355 C  
BRANCH  24  25
HETATM   25  C   UNL     1     -10.475  16.343  68.847  1.00  0.00    -0.285 A  
HETATM   26  C   UNL     1      -9.874  17.576  68.695  1.00  0.00    -0.338 A  
HETATM   27  N   UNL     1      -9.883  17.891  67.364  1.00  0.00    -0.295 NA 
HETATM   28  H   UNL     1      -9.502  18.749  66.967  1.00  0.00     0.000 HD 
HETATM   29  C   UNL     1     -10.478  16.885  66.639  1.00  0.00    -0.257 A  
HETATM   30  C   UNL     1     -10.853  15.894  67.542  1.00  0.00    -0.305 A  
HETATM   31  C   UNL     1     -11.486  14.729  67.049  1.00  0.00    -0.362 A  
HETATM   32  C   UNL     1     -11.732  14.609  65.676  1.00  0.00    -0.304 A  
HETATM   33  C   UNL     1     -11.348  15.626  64.798  1.00  0.00    -0.348 A  
HETATM   34  C   UNL     1     -12.384  13.434  65.170  1.00  0.00    -0.456 C  
HETATM   35  N   UNL     1     -12.914  12.487  64.755  1.00  0.00    -0.842 NA 
HETATM   36  C   UNL     1     -10.712  16.783  65.263  1.00  0.00    -0.183 A  
ENDBRANCH  24  25
ENDBRANCH  23  24
ENDBRANCH  22  23
ENDBRANCH  21  22
ENDBRANCH  17  21
ENDBRANCH  10  15
ENDBRANCH   2   6
TORSDOF 7
ENDMDL
