MODEL       14
REMARK 921   NORMALIZED FREE ENERGY PREDICTED BY IDOCK:   -6.88 KCAL/MOL
REMARK 922        TOTAL FREE ENERGY PREDICTED BY IDOCK:  -10.60 KCAL/MOL
REMARK 923 INTER-LIGAND FREE ENERGY PREDICTED BY IDOCK:  -10.19 KCAL/MOL
REMARK 924 INTRA-LIGAND FREE ENERGY PREDICTED BY IDOCK:   -0.41 KCAL/MOL
REMARK 927      BINDING AFFINITY PREDICTED BY RF-SCORE:    0.00 PKD
ROOT
HETATM    1  O   UNL     1     -13.527  10.058  70.342  1.00  0.00    -0.561 OA 
HETATM    2  C   UNL     1     -12.465   9.513  70.891  1.00  0.00    -0.202 A  
HETATM    3  H   UNL     1     -13.465  10.644  69.597  1.00  0.00     0.000 HD 
HETATM    4  N   UNL     1     -12.549   8.708  71.913  1.00  0.00    -0.337 NA 
HETATM    5  C   UNL     1     -11.244   8.403  72.210  1.00  0.00    -0.376 A  
HETATM    6  C   UNL     1     -10.739   7.624  73.259  1.00  0.00    -0.409 A  
HETATM    7  C   UNL     1      -9.354   7.460  73.369  1.00  0.00    -0.260 A  
HETATM    8  C   UNL     1      -8.491   8.036  72.438  1.00  0.00    -0.211 A  
HETATM    9  C   UNL     1      -8.974   8.812  71.380  1.00  0.00    -0.307 A  
HETATM   10  C   UNL     1     -10.359   9.006  71.312  1.00  0.00    -0.313 A  
HETATM   11  N   UNL     1     -11.174   9.771  70.515  1.00  0.00    -0.290 NA 
ENDROOT
BRANCH  11  12
HETATM   12  C   UNL     1     -10.810  10.828  69.598  1.00  0.00    -0.241 C  
HETATM   13  C   UNL     1     -11.735  12.042  69.617  1.00  0.00    -0.405 C  
HETATM   14  C   UNL     1     -11.044  13.147  68.814  1.00  0.00    -0.269 C  
HETATM   15  N   UNL     1     -10.729  12.758  67.428  1.00  0.00    -0.228 NA 
HETATM   16  C   UNL     1      -9.960  11.505  67.364  1.00  0.00    -0.190 C  
HETATM   17  C   UNL     1     -10.593  10.362  68.154  1.00  0.00    -0.246 C  
BRANCH  15  18
HETATM   18  C   UNL     1     -11.901  12.728  66.542  1.00  0.00    -0.405 C  
BRANCH  18  19
HETATM   19  C   UNL     1     -12.101  14.039  65.776  1.00  0.00    -0.445 C  
BRANCH  19  20
HETATM   20  C   UNL     1     -10.771  14.705  65.423  1.00  0.00    -0.382 C  
BRANCH  20  21
HETATM   21  C   UNL     1     -10.947  16.178  65.126  1.00  0.00    -0.316 C  
HETATM   22  O   UNL     1     -11.297  16.603  64.028  1.00  0.00    -1.120 OA 
BRANCH  21  23
HETATM   23  C   UNL     1     -10.640  17.147  66.213  1.00  0.00    -0.185 A  
HETATM   24  C   UNL     1     -10.482  16.645  67.512  1.00  0.00    -0.317 A  
HETATM   25  C   UNL     1     -10.223  17.515  68.570  1.00  0.00    -0.378 A  
HETATM   26  C   UNL     1     -10.109  18.878  68.325  1.00  0.00    -0.388 A  
HETATM   27  C   UNL     1     -10.248  19.387  67.039  1.00  0.00    -0.514 A  
HETATM   28  F   UNL     1      -9.862  19.712  69.341  1.00  0.00    -0.463 F  
HETATM   29  C   UNL     1     -10.516  18.522  65.975  1.00  0.00    -0.433 A  
ENDBRANCH  21  23
ENDBRANCH  20  21
ENDBRANCH  19  20
ENDBRANCH  18  19
ENDBRANCH  15  18
ENDBRANCH  11  12
TORSDOF 6
ENDMDL
