MODEL      147
REMARK 921   NORMALIZED FREE ENERGY PREDICTED BY IDOCK:   -3.48 KCAL/MOL
REMARK 922        TOTAL FREE ENERGY PREDICTED BY IDOCK:   -4.53 KCAL/MOL
REMARK 923 INTER-LIGAND FREE ENERGY PREDICTED BY IDOCK:   -4.21 KCAL/MOL
REMARK 924 INTRA-LIGAND FREE ENERGY PREDICTED BY IDOCK:   -0.32 KCAL/MOL
REMARK 927      BINDING AFFINITY PREDICTED BY RF-SCORE:    0.00 PKD
ROOT
HETATM    1  O   UNL     1      -9.389  18.876  67.118  1.00  0.00    -0.291 OA 
HETATM    2  C   UNL     1      -9.736  17.666  67.641  1.00  0.00    -0.277 A  
HETATM    3  H   UNL     1      -9.913  19.287  66.440  1.00  0.00     0.000 HD 
HETATM    4  C   UNL     1      -8.969  17.064  68.633  1.00  0.00    -0.267 A  
HETATM    5  C   UNL     1      -9.364  15.831  69.155  1.00  0.00    -0.258 A  
HETATM    6  C   UNL     1     -10.535  15.218  68.701  1.00  0.00    -0.235 A  
HETATM    7  C   UNL     1     -11.278  15.818  67.681  1.00  0.00    -0.246 A  
HETATM    8  C   UNL     1     -10.882  17.048  67.155  1.00  0.00    -0.082 A  
ENDROOT
BRANCH   6   9
HETATM    9  O   UNL     1     -11.038  14.038  69.180  1.00  0.00    -0.253 OA 
BRANCH   9  10
HETATM   10  C   UNL     1     -11.715  13.230  68.216  1.00  0.00    -0.353 C  
BRANCH  10  11
HETATM   11  C   UNL     1     -11.377  11.779  68.445  1.00  0.00    -0.328 A  
HETATM   12  C   UNL     1     -10.930  10.973  67.389  1.00  0.00    -0.349 A  
HETATM   13  C   UNL     1     -10.573   9.643  67.621  1.00  0.00    -0.334 A  
HETATM   14  C   UNL     1     -10.652   9.114  68.908  1.00  0.00    -0.214 A  
HETATM   15  C   UNL     1     -11.088   9.908  69.966  1.00  0.00    -0.335 A  
HETATM   16  C   UNL     1     -11.445  11.236  69.737  1.00  0.00    -0.386 A  
ENDBRANCH  10  11
ENDBRANCH   9  10
ENDBRANCH   6   9
TORSDOF 3
ENDMDL
