MODEL       30
REMARK 921   NORMALIZED FREE ENERGY PREDICTED BY IDOCK:   -6.77 KCAL/MOL
REMARK 922        TOTAL FREE ENERGY PREDICTED BY IDOCK:  -11.39 KCAL/MOL
REMARK 923 INTER-LIGAND FREE ENERGY PREDICTED BY IDOCK:  -10.38 KCAL/MOL
REMARK 924 INTRA-LIGAND FREE ENERGY PREDICTED BY IDOCK:   -1.01 KCAL/MOL
REMARK 927      BINDING AFFINITY PREDICTED BY RF-SCORE:    0.00 PKD
ROOT
HETATM    1  C   UNL     1     -11.529   4.580  73.281  1.00  0.00    -0.219 C  
HETATM    2  N   UNL     1     -11.774   5.931  72.857  1.00  0.00    -0.520 N  
HETATM    3  C   UNL     1     -11.073   6.495  71.813  1.00  0.00    -0.257 C  
HETATM    4  H   UNL     1     -12.482   6.484  73.339  1.00  0.00     0.000 HD 
HETATM    5  O   UNL     1     -10.196   5.906  71.190  1.00  0.00    -0.198 OA 
ENDROOT
BRANCH   3   6
HETATM    6  C   UNL     1     -11.474   7.896  71.461  1.00  0.00    -0.265 A  
HETATM    7  N   UNL     1     -12.743   8.280  71.775  1.00  0.00    -0.325 NA 
HETATM    8  C   UNL     1     -13.101   9.524  71.386  1.00  0.00    -0.370 A  
HETATM    9  C   UNL     1     -12.279  10.384  70.670  1.00  0.00    -0.441 A  
HETATM   10  C   UNL     1     -10.998   9.950  70.346  1.00  0.00    -0.318 A  
HETATM   11  C   UNL     1     -10.565   8.704  70.797  1.00  0.00    -0.254 A  
BRANCH  10  12
HETATM   12  O   UNL     1     -10.214  10.804  69.590  1.00  0.00    -0.180 OA 
BRANCH  12  13
HETATM   13  C   UNL     1     -10.842  11.601  68.653  1.00  0.00    -0.213 A  
HETATM   14  C   UNL     1     -11.093  11.170  67.356  1.00  0.00    -0.370 A  
HETATM   15  C   UNL     1     -11.588  12.063  66.412  1.00  0.00    -0.381 A  
HETATM   16  C   UNL     1     -11.962  13.367  66.757  1.00  0.00    -0.394 A  
HETATM   17  C   UNL     1     -11.794  13.768  68.086  1.00  0.00    -0.411 A  
HETATM   18  C   UNL     1     -11.237  12.886  69.031  1.00  0.00    -0.320 A  
BRANCH  16  19
HETATM   19  N   UNL     1     -12.495  14.277  65.805  1.00  0.00    -0.431 N  
HETATM   20  H   UNL     1     -13.297  14.848  66.073  1.00  0.00     0.000 HD 
BRANCH  19  21
HETATM   21  C   UNL     1     -11.974  14.424  64.525  1.00  0.00    -0.472 C  
HETATM   22  O   UNL     1     -12.612  14.163  63.513  1.00  0.00    -0.834 OA 
BRANCH  21  23
HETATM   23  N   UNL     1     -10.668  14.880  64.495  1.00  0.00    -0.601 N  
HETATM   24  H   UNL     1     -10.025  14.465  63.820  1.00  0.00     0.000 HD 
BRANCH  23  25
HETATM   25  C   UNL     1     -10.175  15.903  65.363  1.00  0.00    -0.323 A  
HETATM   26  C   UNL     1      -9.153  15.682  66.294  1.00  0.00    -0.376 A  
HETATM   27  C   UNL     1      -8.743  16.657  67.220  1.00  0.00    -0.207 A  
HETATM   28  C   UNL     1      -7.705  16.305  68.251  1.00  0.00    -0.158 C  
HETATM   29  C   UNL     1      -9.338  17.914  67.153  1.00  0.00    -0.265 A  
HETATM   30  F   UNL     1      -8.150  16.459  69.530  1.00  0.00    -0.222 F  
HETATM   31  F   UNL     1      -6.573  17.055  68.145  1.00  0.00    -0.136 F  
HETATM   32  F   UNL     1      -7.280  15.009  68.177  1.00  0.00    -0.096 F  
HETATM   33 CL   UNL     1      -8.893  19.191  68.223  1.00  0.00    -0.361 Cl 
HETATM   34  C   UNL     1     -10.325  18.173  66.192  1.00  0.00    -0.394 A  
HETATM   35  C   UNL     1     -10.748  17.175  65.303  1.00  0.00    -0.067 A  
ENDBRANCH  23  25
ENDBRANCH  21  23
ENDBRANCH  19  21
ENDBRANCH  16  19
ENDBRANCH  12  13
ENDBRANCH  10  12
ENDBRANCH   3   6
TORSDOF 7
ENDMDL
