MODEL      135
REMARK 921   NORMALIZED FREE ENERGY PREDICTED BY IDOCK:   -3.41 KCAL/MOL
REMARK 922        TOTAL FREE ENERGY PREDICTED BY IDOCK:   -5.01 KCAL/MOL
REMARK 923 INTER-LIGAND FREE ENERGY PREDICTED BY IDOCK:   -4.53 KCAL/MOL
REMARK 924 INTRA-LIGAND FREE ENERGY PREDICTED BY IDOCK:   -0.48 KCAL/MOL
REMARK 927      BINDING AFFINITY PREDICTED BY RF-SCORE:    0.00 PKD
ROOT
HETATM    1  C   UNL     1     -10.216  16.485  65.707  1.00  0.00    -0.350 C  
HETATM    2  C   UNL     1     -11.187  16.043  66.796  1.00  0.00     0.095 C  
ENDROOT
BRANCH   2   3
HETATM    3  N   UNL     1     -11.668  14.680  66.609  1.00  0.00    -0.362 N  
HETATM    4  C   UNL     1     -12.707  14.436  65.623  1.00  0.00    -0.284 C  
HETATM    5  C   UNL     1     -11.332  13.703  67.547  1.00  0.00    -0.308 C  
HETATM    6  O   UNL     1     -10.567  13.910  68.483  1.00  0.00    -0.241 OA 
BRANCH   5   7
HETATM    7  O   UNL     1     -11.992  12.499  67.309  1.00  0.00    -0.474 OA 
BRANCH   7   8
HETATM    8  C   UNL     1     -11.209  11.360  67.065  1.00  0.00    -0.283 A  
HETATM    9  C   UNL     1     -11.143  10.388  68.060  1.00  0.00    -0.359 A  
HETATM   10  C   UNL     1     -10.292   9.297  67.890  1.00  0.00    -0.279 A  
HETATM   11  C   UNL     1      -9.498   9.190  66.740  1.00  0.00    -0.230 A  
HETATM   12  C   UNL     1      -9.536  10.182  65.749  1.00  0.00    -0.288 A  
HETATM   13  C   UNL     1     -10.406  11.270  65.928  1.00  0.00    -0.304 A  
BRANCH  12  14
HETATM   14  C   UNL     1      -8.648  10.161  64.508  1.00  0.00    -0.189 C  
HETATM   15  C   UNL     1      -9.219  11.049  63.390  1.00  0.00    -0.255 C  
BRANCH  14  16
HETATM   16  N   UNL     1      -8.221   8.820  64.048  1.00  0.00    -0.165 NA 
HETATM   17  C   UNL     1      -8.369   8.638  62.603  1.00  0.00    -0.187 C  
HETATM   18  C   UNL     1      -6.907   8.376  64.491  1.00  0.00    -0.069 C  
ENDBRANCH  14  16
ENDBRANCH  12  14
ENDBRANCH   7   8
ENDBRANCH   5   7
ENDBRANCH   2   3
TORSDOF 5
ENDMDL
