MODEL      223
REMARK 921   NORMALIZED FREE ENERGY PREDICTED BY IDOCK:    7.37 KCAL/MOL
REMARK 922        TOTAL FREE ENERGY PREDICTED BY IDOCK:    7.80 KCAL/MOL
REMARK 923 INTER-LIGAND FREE ENERGY PREDICTED BY IDOCK:   -3.19 KCAL/MOL
REMARK 924 INTRA-LIGAND FREE ENERGY PREDICTED BY IDOCK:   10.99 KCAL/MOL
REMARK 927      BINDING AFFINITY PREDICTED BY RF-SCORE:    0.00 PKD
ROOT
HETATM    1  O   UNL     1     -11.643  18.476  67.249  1.00  0.00     0.659 OA 
HETATM    2  S   UNL     1     -10.130  17.998  67.542  1.00  0.00    -0.368 S  
HETATM    3  O   UNL     1      -9.560  17.523  66.090  1.00  0.00    -0.416 OA 
HETATM    4  O   UNL     1     -10.207  16.854  68.430  1.00  0.00    -0.284 OA 
HETATM    5  O   UNL     1      -9.419  19.191  67.941  1.00  0.00    -0.303 OA 
ENDROOT
BRANCH   3   6
HETATM    6  N   UNL     1      -9.993  16.222  65.618  1.00  0.00    -0.317 N  
HETATM    7  C   UNL     1     -11.449  16.271  65.468  1.00  0.00     0.426 C  
HETATM    8  C   UNL     1     -11.885  16.103  66.911  1.00  0.00     0.979 C  
HETATM    9  N   UNL     1     -11.016  15.007  67.315  1.00  0.00    -0.318 N  
HETATM   10  C   UNL     1     -11.502  13.702  66.817  1.00  0.00    -0.346 C  
HETATM   11  C   UNL     1      -9.739  15.380  66.765  1.00  0.00    -0.240 C  
HETATM   12  O   UNL     1      -8.665  15.114  67.282  1.00  0.00    -0.178 OA 
HETATM   13  C   UNL     1     -11.593  13.704  65.275  1.00  0.00    -0.334 C  
HETATM   14  C   UNL     1     -12.054  15.060  64.711  1.00  0.00    -0.266 C  
BRANCH  10  15
HETATM   15  C   UNL     1     -10.775  12.416  67.275  1.00  0.00    -0.230 C  
HETATM   16  O   UNL     1     -11.377  11.501  67.836  1.00  0.00    -0.259 OA 
HETATM   17  N   UNL     1      -9.420  12.401  67.083  1.00  0.00    -0.193 N  
HETATM   18  H   UNL     1      -8.968  13.231  66.701  1.00  0.00     0.000 HD 
BRANCH  17  19
HETATM   19  C   UNL     1      -8.597  11.236  67.408  1.00  0.00    -0.136 C  
HETATM   20  C   UNL     1      -9.265  10.297  68.420  1.00  0.00    -0.136 C  
HETATM   21  C   UNL     1     -10.474   9.595  67.810  1.00  0.00    -0.256 C  
HETATM   22  N   UNL     1     -10.120   8.870  66.587  1.00  0.00    -0.279 NA 
HETATM   23  H   UNL     1     -10.929   8.383  66.199  1.00  0.00     0.000 HD 
HETATM   24  C   UNL     1      -9.496   9.739  65.587  1.00  0.00    -0.246 C  
HETATM   25  C   UNL     1      -8.265  10.462  66.134  1.00  0.00    -0.144 C  
ENDBRANCH  17  19
ENDBRANCH  10  15
ENDBRANCH   3   6
TORSDOF 3
ENDMDL
