MODEL        4
REMARK 921   NORMALIZED FREE ENERGY PREDICTED BY IDOCK:   -6.88 KCAL/MOL
REMARK 922        TOTAL FREE ENERGY PREDICTED BY IDOCK:  -10.15 KCAL/MOL
REMARK 923 INTER-LIGAND FREE ENERGY PREDICTED BY IDOCK:   -9.41 KCAL/MOL
REMARK 924 INTRA-LIGAND FREE ENERGY PREDICTED BY IDOCK:   -0.75 KCAL/MOL
REMARK 927      BINDING AFFINITY PREDICTED BY RF-SCORE:    0.00 PKD
ROOT
HETATM    1  C   UNL     1     -14.196   8.692  72.279  1.00  0.00    -0.417 C  
HETATM    2  O   UNL     1     -13.302   9.796  72.398  1.00  0.00    -0.412 OA 
ENDROOT
BRANCH   2   3
HETATM    3  C   UNL     1     -12.364   9.938  71.404  1.00  0.00    -0.404 A  
HETATM    4  C   UNL     1     -12.643  10.720  70.269  1.00  0.00    -0.350 A  
HETATM    5  C   UNL     1     -11.711  10.913  69.251  1.00  0.00    -0.324 A  
HETATM    6  C   UNL     1     -10.487  10.261  69.378  1.00  0.00    -0.259 A  
HETATM    7  C   UNL     1     -11.097   9.328  71.548  1.00  0.00    -0.373 A  
HETATM    8  C   UNL     1     -10.156   9.498  70.512  1.00  0.00    -0.285 A  
BRANCH   5   9
HETATM    9  N   UNL     1     -12.103  11.617  68.105  1.00  0.00    -0.558 NA 
HETATM   10  H   UNL     1     -13.083  11.844  67.939  1.00  0.00     0.000 HD 
BRANCH   9  11
HETATM   11  C   UNL     1     -11.071  12.017  67.155  1.00  0.00    -0.290 C  
BRANCH  11  12
HETATM   12  C   UNL     1     -10.770  13.506  67.196  1.00  0.00    -0.282 A  
HETATM   13  C   UNL     1     -10.960  14.306  66.039  1.00  0.00    -0.312 A  
HETATM   14  H2  UNL     1     -12.553  15.993  64.135  1.00  0.00     0.000 HD 
HETATM   15  C   UNL     1     -10.753  15.739  66.098  1.00  0.00    -0.293 A  
HETATM   16  H1  UNL     1     -11.855  17.141  63.192  1.00  0.00     0.000 HD 
HETATM   17  C   UNL     1     -11.372  13.654  64.737  1.00  0.00    -0.365 C  
HETATM   18  C   UNL     1     -10.253  16.303  67.281  1.00  0.00    -0.279 A  
HETATM   19  N   UNL     1      -9.954  17.597  67.423  1.00  0.00    -0.309 NA 
HETATM   20  C   UNL     1     -10.062  15.498  68.389  1.00  0.00    -0.214 A  
HETATM   21  C   UNL     1     -10.336  14.131  68.369  1.00  0.00    -0.249 A  
HETATM   22  C   UNL     1     -10.170  18.395  66.385  1.00  0.00    -0.410 A  
HETATM   23  N   UNL     1     -10.733  18.020  65.243  1.00  0.00    -0.557 NA 
HETATM   24  N   UNL     1      -9.823  19.724  66.515  1.00  0.00    -0.401 NA 
HETATM   25  C   UNL     1     -11.016  16.717  65.110  1.00  0.00    -0.151 A  
HETATM   26  H2  UNL     1      -9.415  20.081  67.379  1.00  0.00     0.000 HD 
HETATM   27  H1  UNL     1      -9.989  20.337  65.718  1.00  0.00     0.000 HD 
HETATM   28  N   UNL     1     -11.665  16.436  63.904  1.00  0.00    -1.024 NA 
ENDBRANCH  11  12
ENDBRANCH   9  11
ENDBRANCH   5   9
BRANCH   8  29
HETATM   29  O   UNL     1      -8.880   8.998  70.407  1.00  0.00    -0.162 OA 
HETATM   30  C   UNL     1      -7.922   9.663  69.601  1.00  0.00    -0.137 C  
ENDBRANCH   8  29
BRANCH   7  31
HETATM   31  O   UNL     1     -10.691   8.558  72.604  1.00  0.00    -0.302 OA 
HETATM   32  C   UNL     1     -10.949   7.165  72.627  1.00  0.00    -0.288 C  
ENDBRANCH   7  31
ENDBRANCH   2   3
TORSDOF 6
ENDMDL
