MODEL        9
REMARK 921   NORMALIZED FREE ENERGY PREDICTED BY IDOCK:   -7.63 KCAL/MOL
REMARK 922        TOTAL FREE ENERGY PREDICTED BY IDOCK:  -11.13 KCAL/MOL
REMARK 923 INTER-LIGAND FREE ENERGY PREDICTED BY IDOCK:  -10.36 KCAL/MOL
REMARK 924 INTRA-LIGAND FREE ENERGY PREDICTED BY IDOCK:   -0.77 KCAL/MOL
REMARK 927      BINDING AFFINITY PREDICTED BY RF-SCORE:    0.00 PKD
ROOT
HETATM    1  C   UNL     1     -12.032  13.592  63.942  1.00  0.00    -0.455 C  
HETATM    2  C   UNL     1     -11.695  14.396  65.159  1.00  0.00    -0.372 A  
HETATM    3  N   UNL     1     -12.220  13.988  66.327  1.00  0.00    -0.455 NA 
HETATM    4  C   UNL     1     -11.807  14.633  67.425  1.00  0.00    -0.348 A  
HETATM    5  C   UNL     1     -10.455  16.077  66.118  1.00  0.00    -0.326 A  
HETATM    6  C   UNL     1     -10.866  15.627  67.354  1.00  0.00    -0.315 A  
HETATM    7  N   UNL     1     -10.850  15.434  65.007  1.00  0.00    -0.427 NA 
ENDROOT
BRANCH   4   8
HETATM    8  N   UNL     1     -12.358  14.222  68.633  1.00  0.00    -0.571 NA 
HETATM    9  H   UNL     1     -13.084  14.824  69.021  1.00  0.00     0.000 HD 
BRANCH   8  10
HETATM   10  C   UNL     1     -12.052  13.124  69.355  1.00  0.00    -0.231 A  
HETATM   11  S   UNL     1     -10.736  12.168  68.816  1.00  0.00    -0.190 SA 
HETATM   12  N   UNL     1     -12.648  12.665  70.438  1.00  0.00    -0.112 NA 
HETATM   13  C   UNL     1     -12.152  11.419  70.770  1.00  0.00    -0.332 A  
HETATM   14  C   UNL     1     -11.145  10.956  69.952  1.00  0.00    -0.241 A  
BRANCH  14  15
HETATM   15  C   UNL     1     -10.518   9.657  69.928  1.00  0.00    -0.253 C  
HETATM   16  O   UNL     1      -9.347   9.496  69.596  1.00  0.00    -0.173 OA 
HETATM   17  H   UNL     1     -12.362   8.835  70.399  1.00  0.00     0.000 HD 
HETATM   18  N   UNL     1     -11.374   8.621  70.269  1.00  0.00    -0.194 N  
BRANCH  18  19
HETATM   19  C   UNL     1     -10.952   7.294  70.445  1.00  0.00    -0.252 A  
HETATM   20  C   UNL     1     -10.228   5.519  71.916  1.00  0.00    -0.251 A  
HETATM   21  C   UNL     1     -10.693   7.731  72.963  1.00  0.00    -0.446 C  
HETATM   22  C   UNL     1     -10.624   6.855  71.742  1.00  0.00    -0.235 A  
HETATM   23  C   UNL     1     -10.136   4.648  70.829  1.00  0.00    -0.264 A  
HETATM   24  C   UNL     1     -10.401   5.104  69.544  1.00  0.00    -0.292 A  
HETATM   25  C   UNL     1     -10.799   6.425  69.345  1.00  0.00    -0.321 A  
HETATM   26 CL   UNL     1     -10.898   6.979  67.704  1.00  0.00    -0.322 Cl 
ENDBRANCH  18  19
ENDBRANCH  14  15
ENDBRANCH   8  10
ENDBRANCH   4   8
BRANCH   5  27
HETATM   27  N   UNL     1      -9.587  17.174  66.051  1.00  0.00    -0.494 NA 
HETATM   28  C   UNL     1      -8.188  16.897  66.437  1.00  0.00    -0.307 C  
HETATM   29  C   UNL     1     -10.101  18.433  66.612  1.00  0.00    -0.380 C  
HETATM   30  N   UNL     1      -7.698  19.392  66.570  1.00  0.00    -0.263 NA 
HETATM   31  C   UNL     1      -7.290  18.078  66.021  1.00  0.00    -0.263 C  
HETATM   32  C   UNL     1      -9.140  19.596  66.235  1.00  0.00    -0.376 C  
BRANCH  30  33
HETATM   33  C   UNL     1      -7.488  19.498  68.031  1.00  0.00    -0.285 C  
BRANCH  33  34
HETATM   34  C   UNL     1      -6.274  20.361  68.419  1.00  0.00    -0.308 C  
HETATM   35  H   UNL     1      -5.522  21.162  70.057  1.00  0.00     0.000 HD 
HETATM   36  O   UNL     1      -6.272  20.630  69.818  1.00  0.00    -0.302 OA 
ENDBRANCH  33  34
ENDBRANCH  30  33
ENDBRANCH   5  27
TORSDOF 7
ENDMDL
