MODEL        9
REMARK 921   NORMALIZED FREE ENERGY PREDICTED BY IDOCK:   -5.67 KCAL/MOL
REMARK 922        TOTAL FREE ENERGY PREDICTED BY IDOCK:   27.33 KCAL/MOL
REMARK 923 INTER-LIGAND FREE ENERGY PREDICTED BY IDOCK:   -7.21 KCAL/MOL
REMARK 924 INTRA-LIGAND FREE ENERGY PREDICTED BY IDOCK:   34.54 KCAL/MOL
REMARK 927      BINDING AFFINITY PREDICTED BY RF-SCORE:    0.00 PKD
ROOT
HETATM    1 FE   UNL     1     -10.646  12.973  70.075  1.00  0.00    -0.431 Fe 
HETATM    2  C   UNL     2     -11.022  12.417  63.894  1.00  0.00    -0.414 C  
HETATM    3  O   UNL     2     -10.181  11.211  63.915  1.00  0.00    -0.300 OA 
HETATM    4  C   UNL     3      -9.337  11.727  66.830  1.00  0.00    -0.192 C  
HETATM    5  H   UNL     3      -9.010  11.797  64.988  1.00  0.00     0.000 HD 
HETATM    6  H   UNL     2      -9.300  11.567  63.930  1.00  0.00     0.000 HD 
HETATM    7  O   UNL     3      -8.511  11.446  65.716  1.00  0.00    -0.089 OA 
ENDROOT
BRANCH   2   8
HETATM    8  C   UNL     2     -10.892  13.150  65.225  1.00  0.00    -0.314 C  
HETATM    9  H   UNL     2     -12.546  12.743  69.274  1.00  0.00     0.000 HD 
HETATM   10  H   UNL     2     -12.078  11.153  68.032  1.00  0.00     0.000 HD 
HETATM   11  C   UNL     2     -11.427  13.639  67.952  1.00  0.00    -0.314 C  
HETATM   12  O   UNL     2     -10.812  15.075  65.321  1.00  0.00    -0.334 OA 
HETATM   13  O   UNL     2     -10.477  16.021  68.165  1.00  0.00    -0.252 OA 
HETATM   14  O   UNL     2     -11.936  11.433  67.135  1.00  0.00    -0.532 OA 
HETATM   15  C   UNL     2     -11.131  15.365  67.286  1.00  0.00    -0.302 C  
HETATM   16  H   UNL     2     -10.628  16.157  69.093  1.00  0.00     0.000 HD 
HETATM   17  O   UNL     2     -12.396  13.618  68.937  1.00  0.00    -0.276 OA 
HETATM   18  C   UNL     2     -11.177  12.587  67.028  1.00  0.00    -0.302 C  
ENDBRANCH   2   8
BRANCH   2  19
HETATM   19  C   UNL     2     -12.449  11.841  63.870  1.00  0.00    -0.274 C  
HETATM   20  H   UNL     2     -14.217  12.327  64.584  1.00  0.00     0.000 HD 
HETATM   21  O   UNL     2     -13.336  12.683  64.599  1.00  0.00    -0.767 OA 
ENDBRANCH   2  19
BRANCH   4  22
HETATM   22  C   UNL     3      -9.987  13.442  66.967  1.00  0.00    -0.246 C  
HETATM   23  H   UNL     3      -9.476  16.902  64.655  1.00  0.00     0.000 HD 
HETATM   24  C   UNL     3      -8.688  16.268  67.252  1.00  0.00    -0.182 C  
HETATM   25  O   UNL     3      -9.029  13.689  68.555  1.00  0.00    -0.174 OA 
HETATM   26  O   UNL     3      -8.129  15.666  69.859  1.00  0.00    -0.062 OA 
HETATM   27  C   UNL     3      -9.475  15.493  66.174  1.00  0.00    -0.341 C  
HETATM   28  O   UNL     3      -8.428  17.506  67.364  1.00  0.00    -0.212 OA 
HETATM   29  O   UNL     3      -9.691  16.039  64.988  1.00  0.00    -0.257 OA 
HETATM   30  C   UNL     3      -8.349  15.229  68.728  1.00  0.00    -0.179 C  
ENDBRANCH   4  22
BRANCH   4  31
HETATM   31  C   UNL     3      -8.528  11.158  68.010  1.00  0.00    -0.135 C  
HETATM   32  O   UNL     3      -9.341  10.926  69.179  1.00  0.00    -0.331 OA 
HETATM   33  H   UNL     3      -8.842  10.575  69.907  1.00  0.00     0.000 HD 
ENDBRANCH   4  31
TORSDOF 4
ENDMDL
