MODEL       42
REMARK 921   NORMALIZED FREE ENERGY PREDICTED BY IDOCK:   -6.38 KCAL/MOL
REMARK 922        TOTAL FREE ENERGY PREDICTED BY IDOCK:   -7.50 KCAL/MOL
REMARK 923 INTER-LIGAND FREE ENERGY PREDICTED BY IDOCK:   -7.11 KCAL/MOL
REMARK 924 INTRA-LIGAND FREE ENERGY PREDICTED BY IDOCK:   -0.39 KCAL/MOL
REMARK 927      BINDING AFFINITY PREDICTED BY RF-SCORE:    0.00 PKD
ROOT
HETATM    1  O   UNL     1     -12.278  16.442  73.356  1.00  0.00    -0.499 OA 
HETATM    2  C   UNL     1     -13.071  15.828  72.453  1.00  0.00    -0.465 C  
HETATM    3  C   UNL     1     -12.339  15.292  71.281  1.00  0.00    -0.424 A  
HETATM    4  O   UNL     1     -14.271  15.686  72.602  1.00  0.00    -0.546 OA 
HETATM    5  C   UNL     1     -12.792  14.112  70.683  1.00  0.00    -0.356 A  
HETATM    6  C   UNL     1     -12.110  13.580  69.586  1.00  0.00    -0.365 A  
HETATM    7  C   UNL     1     -10.972  14.224  69.089  1.00  0.00    -0.286 A  
HETATM    8  C   UNL     1     -10.516  15.412  69.674  1.00  0.00    -0.286 A  
HETATM    9  C   UNL     1     -11.226  15.955  70.757  1.00  0.00    -0.398 A  
ENDROOT
BRANCH   8  10
HETATM   10  C   UNL     1      -9.300  16.079  69.224  1.00  0.00    -0.244 A  
HETATM   11  N   UNL     1      -8.054  15.636  69.448  1.00  0.00    -0.239 NA 
HETATM   12  O   UNL     1      -7.248  16.644  68.915  1.00  0.00    -0.194 OA 
HETATM   13  C   UNL     1      -8.088  17.601  68.421  1.00  0.00    -0.285 A  
HETATM   14  N   UNL     1      -9.355  17.294  68.575  1.00  0.00    -0.270 NA 
BRANCH  13  15
HETATM   15  C   UNL     1      -7.502  18.801  67.840  1.00  0.00    -0.262 A  
HETATM   16  C   UNL     1      -7.570  18.998  66.449  1.00  0.00    -0.279 A  
HETATM   17  C   UNL     1      -7.037  20.147  65.858  1.00  0.00    -0.312 A  
HETATM   18  C   UNL     1      -6.427  21.118  66.649  1.00  0.00    -0.349 A  
HETATM   19  C   UNL     1      -6.351  20.937  68.028  1.00  0.00    -0.381 A  
HETATM   20  C   UNL     1      -6.885  19.788  68.611  1.00  0.00    -0.322 A  
HETATM   21  F   UNL     1      -6.794  19.666  69.944  1.00  0.00    -0.352 F  
ENDBRANCH  13  15
ENDBRANCH   8  10
TORSDOF 2
ENDMDL
