MODEL       67
REMARK 921   NORMALIZED FREE ENERGY PREDICTED BY IDOCK:   -5.06 KCAL/MOL
REMARK 922        TOTAL FREE ENERGY PREDICTED BY IDOCK:  -15.17 KCAL/MOL
REMARK 923 INTER-LIGAND FREE ENERGY PREDICTED BY IDOCK:  -12.73 KCAL/MOL
REMARK 924 INTRA-LIGAND FREE ENERGY PREDICTED BY IDOCK:   -2.44 KCAL/MOL
REMARK 927      BINDING AFFINITY PREDICTED BY RF-SCORE:    0.00 PKD
ROOT
HETATM    1  O   UNL     1     -11.908  10.473  67.865  1.00  0.00    -0.731 OA 
HETATM    2  C   UNL     1     -10.554  10.043  67.738  1.00  0.00    -0.261 C  
HETATM    3  H   UNL     1     -12.423  10.157  67.131  1.00  0.00     0.000 HD 
ENDROOT
BRANCH   2   4
HETATM    4  C   UNL     1      -9.720  10.555  68.928  1.00  0.00    -0.206 C  
BRANCH   4   5
HETATM    5  C   UNL     1      -9.813   9.706  70.201  1.00  0.00    -0.310 C  
BRANCH   5   6
HETATM    6  C   UNL     1     -10.978   8.691  70.260  1.00  0.00    -0.251 C  
HETATM    7  H   UNL     1     -14.062   7.418  72.506  1.00  0.00     0.000 HD 
HETATM    8  C   UNL     1     -11.989   8.774  71.481  1.00  0.00    -0.386 C  
HETATM    9  C   UNL     1     -10.388   7.279  70.378  1.00  0.00    -0.208 C  
HETATM   10  C   UNL     1     -11.556   6.438  70.804  1.00  0.00    -0.402 C  
HETATM   11  O   UNL     1      -9.875   6.799  69.149  1.00  0.00    -0.155 OA 
HETATM   12  O   UNL     1     -13.620   6.890  71.851  1.00  0.00    -0.277 OA 
HETATM   13  H   UNL     1      -9.510   5.925  69.222  1.00  0.00     0.000 HD 
HETATM   14  C   UNL     1     -12.261   7.280  71.847  1.00  0.00    -0.313 C  
BRANCH   8  15
HETATM   15  C   UNL     1     -13.269   9.635  71.236  1.00  0.00    -0.429 C  
BRANCH  15  16
HETATM   16  C   UNL     1     -13.276  11.001  71.898  1.00  0.00    -0.503 C  
HETATM   17  C   UNL     1     -12.812  12.198  71.487  1.00  0.00    -0.394 C  
BRANCH  17  18
HETATM   18  C   UNL     1     -12.109  12.548  70.206  1.00  0.00    -0.373 C  
BRANCH  18  19
HETATM   19  C   UNL     1     -12.317  14.018  69.810  1.00  0.00    -0.344 C  
BRANCH  19  20
HETATM   20  C   UNL     1     -11.119  14.658  69.121  1.00  0.00    -0.285 C  
BRANCH  20  21
HETATM   21  C   UNL     1     -11.080  16.134  69.370  1.00  0.00    -0.335 C  
HETATM   22  O   UNL     1     -11.305  16.697  70.435  1.00  0.00    -0.207 OA 
BRANCH  21  23
HETATM   23  O   UNL     1     -10.893  16.759  68.176  1.00  0.00    -0.350 OA 
BRANCH  23  24
HETATM   24  C   UNL     1     -10.367  18.054  68.382  1.00  0.00    -0.368 C  
BRANCH  24  25
HETATM   25  C   UNL     1     -10.764  19.028  67.294  1.00  0.00    -0.556 C  
BRANCH  25  26
HETATM   26  C   UNL     1      -9.723  20.122  67.067  1.00  0.00    -0.574 C  
BRANCH  26  27
HETATM   27  C   UNL     1      -8.267  19.689  67.291  1.00  0.00    -0.296 C  
BRANCH  27  28
HETATM   28  O   UNL     1      -7.496  20.074  66.174  1.00  0.00    -0.285 OA 
HETATM   29  N   UNL     1      -6.996  18.963  65.455  1.00  0.00    -0.185 N  
HETATM   30  O   UNL     1      -6.268  19.296  64.516  1.00  0.00    -0.403 OA 
HETATM   31  O   UNL     1      -7.324  17.847  65.837  1.00  0.00    -0.436 OA 
ENDBRANCH  27  28
ENDBRANCH  26  27
ENDBRANCH  25  26
ENDBRANCH  24  25
ENDBRANCH  23  24
ENDBRANCH  21  23
ENDBRANCH  20  21
ENDBRANCH  19  20
ENDBRANCH  18  19
ENDBRANCH  17  18
ENDBRANCH  15  16
ENDBRANCH   8  15
ENDBRANCH   5   6
ENDBRANCH   4   5
ENDBRANCH   2   4
BRANCH   2  32
HETATM   32  C   UNL     1     -10.041  10.597  66.417  1.00  0.00    -0.279 C  
BRANCH  32  33
HETATM   33  C   UNL     1      -9.524  12.023  66.566  1.00  0.00    -0.234 C  
BRANCH  33  34
HETATM   34  C   UNL     1     -10.464  12.964  65.887  1.00  0.00    -0.294 A  
HETATM   35  C   UNL     1     -12.573  13.350  64.770  1.00  0.00    -0.370 A  
HETATM   36  C   UNL     1     -10.911  15.105  64.884  1.00  0.00    -0.434 A  
HETATM   37  C   UNL     1     -11.723  12.503  65.475  1.00  0.00    -0.457 A  
HETATM   38  C   UNL     1     -10.059  14.264  65.588  1.00  0.00    -0.364 A  
HETATM   39  C   UNL     1     -12.167  14.650  64.475  1.00  0.00    -0.473 A  
ENDBRANCH  33  34
ENDBRANCH  32  33
ENDBRANCH   2  32
TORSDOF 18
ENDMDL
