MODEL       25
REMARK 921   NORMALIZED FREE ENERGY PREDICTED BY IDOCK:   -6.74 KCAL/MOL
REMARK 922        TOTAL FREE ENERGY PREDICTED BY IDOCK:  -14.08 KCAL/MOL
REMARK 923 INTER-LIGAND FREE ENERGY PREDICTED BY IDOCK:  -11.71 KCAL/MOL
REMARK 924 INTRA-LIGAND FREE ENERGY PREDICTED BY IDOCK:   -2.37 KCAL/MOL
REMARK 927      BINDING AFFINITY PREDICTED BY RF-SCORE:    0.00 PKD
ROOT
HETATM    1  C   UNL     1     -10.733   4.291  72.931  1.00  0.00    -0.246 C  
HETATM    2  C   UNL     1     -11.318   5.678  72.690  1.00  0.00    -0.305 C  
HETATM    3  C   UNL     1     -10.589   6.725  73.527  1.00  0.00    -0.358 C  
ENDROOT
BRANCH   2   4
HETATM    4  O   UNL     1     -11.145   6.033  71.306  1.00  0.00    -0.276 OA 
BRANCH   4   5
HETATM    5  C   UNL     1     -11.839   7.135  70.905  1.00  0.00    -0.339 C  
HETATM    6  O   UNL     1     -13.004   7.375  71.193  1.00  0.00    -0.319 OA 
BRANCH   5   7
HETATM    7  C   UNL     1     -10.986   7.990  70.005  1.00  0.00    -0.202 C  
BRANCH   7   8
HETATM    8  C   UNL     1     -10.893   9.407  70.571  1.00  0.00    -0.336 C  
BRANCH   8   9
HETATM    9  C   UNL     1     -10.536  10.459  69.525  1.00  0.00    -0.274 C  
BRANCH   9  10
HETATM   10  C   UNL     1     -11.072  10.129  68.159  1.00  0.00    -0.290 C  
HETATM   11  C   UNL     1     -10.728  10.733  67.010  1.00  0.00    -0.320 C  
BRANCH  11  12
HETATM   12  C   UNL     1      -9.799  11.908  66.880  1.00  0.00    -0.217 C  
BRANCH  12  13
HETATM   13  C   UNL     1     -10.458  13.126  66.219  1.00  0.00    -0.291 C  
HETATM   14  C   UNL     1     -10.308  13.212  64.696  1.00  0.00    -0.361 C  
HETATM   15  O   UNL     1     -10.409  11.931  64.083  1.00  0.00    -0.286 OA 
HETATM   16  C   UNL     1     -11.500  14.055  64.256  1.00  0.00    -0.314 C  
HETATM   17  C   UNL     1     -12.640  13.562  65.142  1.00  0.00    -0.436 C  
HETATM   18  H   UNL     1     -10.316  11.985  63.139  1.00  0.00     0.000 HD 
HETATM   19  O   UNL     1     -13.257  12.419  64.542  1.00  0.00    -0.834 OA 
HETATM   20  C   UNL     1     -11.989  13.156  66.487  1.00  0.00    -0.459 C  
HETATM   21  H   UNL     1     -13.967  12.112  65.094  1.00  0.00     0.000 HD 
BRANCH  20  22
HETATM   22  C   UNL     1     -12.275  14.040  67.689  1.00  0.00    -0.235 C  
HETATM   23  C   UNL     1     -12.073  13.723  68.981  1.00  0.00    -0.359 C  
BRANCH  23  24
HETATM   24  C   UNL     1     -12.405  14.569  70.191  1.00  0.00    -0.342 C  
HETATM   25  H   UNL     1     -12.426  14.334  72.137  1.00  0.00     0.000 HD 
HETATM   26  O   UNL     1     -12.218  13.803  71.377  1.00  0.00    -0.305 OA 
BRANCH  24  27
HETATM   27  C   UNL     1     -11.513  15.827  70.226  1.00  0.00    -0.359 C  
BRANCH  27  28
HETATM   28  O   UNL     1     -10.138  15.496  69.973  1.00  0.00    -0.301 OA 
BRANCH  28  29
HETATM   29  C   UNL     1      -9.614  16.086  68.851  1.00  0.00    -0.236 A  
HETATM   30  C   UNL     1      -8.727  15.457  67.973  1.00  0.00    -0.160 A  
HETATM   31  C   UNL     1      -8.254  16.133  66.846  1.00  0.00    -0.273 A  
HETATM   32  C   UNL     1      -8.670  17.437  66.587  1.00  0.00    -0.286 A  
HETATM   33  C   UNL     1      -9.570  18.079  67.446  1.00  0.00    -0.272 A  
HETATM   34  C   UNL     1     -10.021  19.492  67.167  1.00  0.00    -0.373 C  
HETATM   35  C   UNL     1     -10.047  17.387  68.574  1.00  0.00    -0.352 A  
HETATM   36  F   UNL     1      -9.435  20.039  66.063  1.00  0.00    -0.425 F  
HETATM   37  F   UNL     1      -9.740  20.343  68.192  1.00  0.00    -0.451 F  
HETATM   38  F   UNL     1     -11.362  19.585  66.957  1.00  0.00    -0.515 F  
ENDBRANCH  28  29
ENDBRANCH  27  28
ENDBRANCH  24  27
ENDBRANCH  23  24
ENDBRANCH  20  22
ENDBRANCH  12  13
ENDBRANCH  11  12
ENDBRANCH   9  10
ENDBRANCH   8   9
ENDBRANCH   7   8
ENDBRANCH   5   7
ENDBRANCH   4   5
ENDBRANCH   2   4
TORSDOF 13
ENDMDL
