MODEL       27
REMARK 921   NORMALIZED FREE ENERGY PREDICTED BY IDOCK:   -6.89 KCAL/MOL
REMARK 922        TOTAL FREE ENERGY PREDICTED BY IDOCK:   -9.84 KCAL/MOL
REMARK 923 INTER-LIGAND FREE ENERGY PREDICTED BY IDOCK:   -9.22 KCAL/MOL
REMARK 924 INTRA-LIGAND FREE ENERGY PREDICTED BY IDOCK:   -0.61 KCAL/MOL
REMARK 927      BINDING AFFINITY PREDICTED BY RF-SCORE:    0.00 PKD
ROOT
HETATM    1  F   UNL     1      -7.104  18.620  67.414  1.00  0.00    -0.201 F  
HETATM    2  C   UNL     1      -8.313  18.998  66.899  1.00  0.00    -0.277 C  
HETATM    3  C   UNL     1      -9.140  17.827  66.379  1.00  0.00    -0.234 A  
HETATM    4  F   UNL     1      -8.017  19.912  65.929  1.00  0.00    -0.330 F  
HETATM    5  F   UNL     1      -8.929  19.695  67.897  1.00  0.00    -0.337 F  
HETATM    6  C   UNL     1      -8.656  16.522  66.507  1.00  0.00    -0.321 A  
HETATM    7  C   UNL     1      -9.392  15.468  65.966  1.00  0.00    -0.379 A  
HETATM    8  C   UNL     1     -10.601  15.720  65.311  1.00  0.00    -0.446 A  
HETATM    9  C   UNL     1     -11.022  17.042  65.254  1.00  0.00    -0.006 A  
HETATM   10  N   UNL     1     -10.333  18.085  65.772  1.00  0.00    -0.618 NA 
ENDROOT
BRANCH   8  11
HETATM   11  C   UNL     1     -11.385  14.637  64.612  1.00  0.00    -0.369 C  
BRANCH  11  12
HETATM   12  N   UNL     1     -12.486  14.176  65.449  1.00  0.00    -0.471 NA 
HETATM   13  H   UNL     1     -13.461  14.421  65.275  1.00  0.00     0.000 HD 
BRANCH  12  14
HETATM   14  C   UNL     1     -12.074  13.361  66.524  1.00  0.00    -0.388 A  
HETATM   15  N   UNL     1     -12.094  13.823  67.790  1.00  0.00    -0.343 NA 
HETATM   16  C   UNL     1     -11.587  13.026  68.764  1.00  0.00    -0.309 A  
HETATM   17  C   UNL     1     -11.057  11.757  68.553  1.00  0.00    -0.288 A  
HETATM   18  C   UNL     1     -11.585  12.095  66.222  1.00  0.00    -0.424 A  
HETATM   19  C   UNL     1     -11.090  11.282  67.243  1.00  0.00    -0.367 A  
BRANCH  17  20
HETATM   20  C   UNL     1     -10.423  10.970  69.668  1.00  0.00    -0.069 C  
BRANCH  20  21
HETATM   21  C   UNL     1     -11.493  10.143  70.302  1.00  0.00    -0.381 A  
HETATM   22  C   UNL     1     -12.785  10.555  70.595  1.00  0.00    -0.355 A  
HETATM   23  N   UNL     1     -13.446   9.520  71.203  1.00  0.00    -0.541 NA 
HETATM   24  C   UNL     1     -12.615   8.444  71.317  1.00  0.00    -0.217 A  
HETATM   25  H   UNL     1     -14.415   9.549  71.521  1.00  0.00     0.000 HD 
HETATM   26  N   UNL     1     -12.973   7.266  71.862  1.00  0.00    -0.289 NA 
HETATM   27  C   UNL     1     -11.962   6.361  71.860  1.00  0.00    -0.329 A  
HETATM   28  C   UNL     1     -10.677   6.586  71.384  1.00  0.00    -0.238 A  
HETATM   29 CL   UNL     1      -9.490   5.344  71.448  1.00  0.00    -0.179 Cl 
HETATM   30  C   UNL     1     -10.356   7.831  70.843  1.00  0.00    -0.208 A  
HETATM   31  C   UNL     1     -11.376   8.798  70.789  1.00  0.00    -0.313 A  
ENDBRANCH  20  21
ENDBRANCH  17  20
ENDBRANCH  12  14
ENDBRANCH  11  12
ENDBRANCH   8  11
TORSDOF 5
ENDMDL
