MODEL      247
REMARK 921   NORMALIZED FREE ENERGY PREDICTED BY IDOCK:   -3.54 KCAL/MOL
REMARK 922        TOTAL FREE ENERGY PREDICTED BY IDOCK:   -5.64 KCAL/MOL
REMARK 923 INTER-LIGAND FREE ENERGY PREDICTED BY IDOCK:   -4.99 KCAL/MOL
REMARK 924 INTRA-LIGAND FREE ENERGY PREDICTED BY IDOCK:   -0.65 KCAL/MOL
REMARK 927      BINDING AFFINITY PREDICTED BY RF-SCORE:    0.00 PKD
ROOT
HETATM    1  C   UNL     1     -12.132  14.319  69.137  1.00  0.00    -0.302 C  
HETATM    2  O   UNL     1     -11.414  14.850  68.025  1.00  0.00    -0.313 OA 
ENDROOT
BRANCH   2   3
HETATM    3  C   UNL     1     -10.968  13.946  67.093  1.00  0.00    -0.291 A  
HETATM    4  C   UNL     1      -9.933  13.049  67.411  1.00  0.00    -0.228 A  
HETATM    5  C   UNL     1      -9.469  12.097  66.505  1.00  0.00    -0.231 A  
HETATM    6  C   UNL     1     -10.047  12.090  65.239  1.00  0.00    -0.289 A  
HETATM    7  C   UNL     1     -11.587  13.889  65.823  1.00  0.00    -0.338 A  
HETATM    8  C   UNL     1     -11.108  12.945  64.892  1.00  0.00    -0.297 A  
BRANCH   5   9
HETATM    9  N   UNL     1      -8.363  11.313  66.860  1.00  0.00    -0.149 NA 
HETATM   10  H   UNL     1      -7.768  11.572  67.648  1.00  0.00     0.000 HD 
BRANCH   9  11
HETATM   11  C   UNL     1      -8.085  10.117  66.073  1.00  0.00    -0.129 C  
BRANCH  11  12
HETATM   12  C   UNL     1      -7.825   8.889  66.931  1.00  0.00    -0.101 A  
HETATM   13  C   UNL     1      -8.908   8.092  67.384  1.00  0.00    -0.134 A  
HETATM   14  H2  UNL     1     -10.953   5.907  67.157  1.00  0.00     0.000 HD 
HETATM   15  C   UNL     1      -8.658   6.876  68.134  1.00  0.00    -0.123 A  
HETATM   16  H1  UNL     1     -11.586   5.163  68.477  1.00  0.00     0.000 HD 
HETATM   17  C   UNL     1     -10.329   8.520  67.090  1.00  0.00    -0.377 C  
HETATM   18  C   UNL     1      -7.341   6.566  68.500  1.00  0.00    -0.087 A  
HETATM   19  N   UNL     1      -7.003   5.514  69.252  1.00  0.00    -0.061 NA 
HETATM   20  C   UNL     1      -6.306   7.369  68.059  1.00  0.00    -0.048 A  
HETATM   21  C   UNL     1      -6.526   8.495  67.268  1.00  0.00    -0.058 A  
HETATM   22  C   UNL     1      -7.978   4.706  69.651  1.00  0.00    -0.065 A  
HETATM   23  N   UNL     1      -9.252   4.819  69.296  1.00  0.00    -0.109 NA 
HETATM   24  N   UNL     1      -7.637   3.644  70.462  1.00  0.00    -0.041 NA 
HETATM   25  C   UNL     1      -9.578   5.885  68.552  1.00  0.00    -0.123 A  
HETATM   26  H2  UNL     1      -6.670   3.484  70.746  1.00  0.00     0.000 HD 
HETATM   27  H1  UNL     1      -8.385   3.024  70.769  1.00  0.00     0.000 HD 
HETATM   28  N   UNL     1     -10.924   5.877  68.175  1.00  0.00    -0.244 NA 
ENDBRANCH  11  12
ENDBRANCH   9  11
ENDBRANCH   5   9
BRANCH   8  29
HETATM   29  O   UNL     1     -11.523  12.710  63.603  1.00  0.00    -0.429 OA 
HETATM   30  C   UNL     1     -12.718  11.985  63.365  1.00  0.00    -0.398 C  
ENDBRANCH   8  29
BRANCH   7  31
HETATM   31  O   UNL     1     -12.611  14.689  65.392  1.00  0.00    -0.265 OA 
HETATM   32  C   UNL     1     -12.366  15.763  64.502  1.00  0.00     0.244 C  
ENDBRANCH   7  31
ENDBRANCH   2   3
TORSDOF 6
ENDMDL
