MODEL       26
REMARK 921   NORMALIZED FREE ENERGY PREDICTED BY IDOCK:   -6.00 KCAL/MOL
REMARK 922        TOTAL FREE ENERGY PREDICTED BY IDOCK:   -8.78 KCAL/MOL
REMARK 923 INTER-LIGAND FREE ENERGY PREDICTED BY IDOCK:   -7.82 KCAL/MOL
REMARK 924 INTRA-LIGAND FREE ENERGY PREDICTED BY IDOCK:   -0.96 KCAL/MOL
REMARK 927      BINDING AFFINITY PREDICTED BY RF-SCORE:    0.00 PKD
ROOT
HETATM    1  C   UNL     1     -11.862  10.937  69.088  1.00  0.00    -0.389 C  
HETATM    2  C   UNL     1     -10.943  11.112  67.893  1.00  0.00    -0.307 C  
ENDROOT
BRANCH   2   3
HETATM    3  C   UNL     1      -9.628  11.759  68.262  1.00  0.00    -0.199 A  
HETATM    4  C   UNL     1      -9.507  13.136  68.221  1.00  0.00    -0.210 A  
HETATM    5  C   UNL     1     -10.566  14.147  67.945  1.00  0.00    -0.243 A  
HETATM    6  N   UNL     1      -9.828  15.395  67.986  1.00  0.00    -0.215 N  
HETATM    7  C   UNL     1      -8.484  15.202  68.255  1.00  0.00    -0.152 A  
HETATM    8  C   UNL     1      -7.672  16.268  68.310  1.00  0.00    -0.158 C  
HETATM    9  C   UNL     1      -8.274  13.744  68.428  1.00  0.00    -0.151 A  
HETATM   10  N   UNL     1      -7.129  13.076  68.674  1.00  0.00    -0.100 NA 
HETATM   11  C   UNL     1      -8.211  17.613  68.010  1.00  0.00    -0.242 C  
HETATM   12  C   UNL     1      -9.528  17.772  67.790  1.00  0.00    -0.262 C  
HETATM   13  C   UNL     1      -7.235  11.712  68.755  1.00  0.00    -0.116 A  
HETATM   14  C   UNL     1      -6.109  10.906  68.983  1.00  0.00    -0.042 A  
HETATM   15  C   UNL     1     -10.442  16.600  67.797  1.00  0.00    -0.316 C  
HETATM   16  C   UNL     1     -10.191  19.065  67.493  1.00  0.00    -0.394 C  
HETATM   17  C   UNL     1      -6.169   9.491  69.043  1.00  0.00    -0.042 A  
HETATM   18  O   UNL     1     -11.648  16.735  67.618  1.00  0.00     0.168 OA 
HETATM   19  O   UNL     1      -9.300  20.164  67.257  1.00  0.00    -0.349 OA 
HETATM   20  C   UNL     1      -7.969  20.140  67.465  1.00  0.00    -0.317 C  
HETATM   21  C   UNL     1      -7.393   8.851  68.904  1.00  0.00    -0.075 A  
HETATM   22  C   UNL     1      -7.294  18.814  67.942  1.00  0.00    -0.241 C  
HETATM   23  H   UNL     1      -6.217  19.771  69.233  1.00  0.00     0.000 HD 
HETATM   24  O   UNL     1      -7.327  21.181  67.328  1.00  0.00    -0.430 OA 
HETATM   25  C   UNL     1      -8.534   9.627  68.755  1.00  0.00    -0.123 A  
HETATM   26  O   UNL     1      -6.793  19.016  69.276  1.00  0.00    -0.305 OA 
HETATM   27  C   UNL     1      -8.473  11.027  68.599  1.00  0.00    -0.157 A  
BRANCH  21  28
HETATM   28  O   UNL     1      -7.456   7.432  68.953  1.00  0.00    -0.095 OA 
BRANCH  28  29
HETATM   29  C   UNL     1      -8.679   6.775  68.693  1.00  0.00    -0.125 C  
HETATM   30  C   UNL     1      -9.560   3.873  66.799  1.00  0.00    -0.222 C  
HETATM   31  N   UNL     1      -8.720   6.065  67.498  1.00  0.00    -0.109 N  
HETATM   32  C   UNL     1      -9.926   5.309  67.161  1.00  0.00    -0.184 C  
HETATM   33  O   UNL     1      -9.640   6.794  69.459  1.00  0.00    -0.148 OA 
HETATM   34  C   UNL     1      -7.689   6.080  66.469  1.00  0.00    -0.103 C  
HETATM   35  C   UNL     1      -7.334   4.654  66.040  1.00  0.00    -0.077 C  
HETATM   36  C   UNL     1      -8.577   3.826  65.605  1.00  0.00    -0.112 C  
BRANCH  36  37
HETATM   37  N   UNL     1      -9.177   4.297  64.325  1.00  0.00    -0.149 NA 
HETATM   38  C   UNL     1      -8.246   4.250  63.178  1.00  0.00    -0.090 C  
HETATM   39  C   UNL     1      -7.900   2.831  62.718  1.00  0.00    -0.067 C  
HETATM   40  C   UNL     1      -9.157   2.023  62.405  1.00  0.00    -0.073 C  
HETATM   41  C   UNL     1     -10.177   2.122  63.536  1.00  0.00    -0.148 C  
HETATM   42  C   UNL     1     -10.412   3.583  63.931  1.00  0.00    -0.264 C  
ENDBRANCH  36  37
ENDBRANCH  28  29
ENDBRANCH  21  28
BRANCH  22  43
HETATM   43  C   UNL     1      -6.055  18.579  67.042  1.00  0.00    -0.179 C  
HETATM   44  C   UNL     1      -6.350  18.413  65.555  1.00  0.00    -0.310 C  
ENDBRANCH  22  43
ENDBRANCH   2   3
TORSDOF 5
ENDMDL
