MODEL       28
REMARK 921   NORMALIZED FREE ENERGY PREDICTED BY IDOCK:   -6.63 KCAL/MOL
REMARK 922        TOTAL FREE ENERGY PREDICTED BY IDOCK:  -11.88 KCAL/MOL
REMARK 923 INTER-LIGAND FREE ENERGY PREDICTED BY IDOCK:  -11.94 KCAL/MOL
REMARK 924 INTRA-LIGAND FREE ENERGY PREDICTED BY IDOCK:    0.07 KCAL/MOL
REMARK 927      BINDING AFFINITY PREDICTED BY RF-SCORE:    0.00 PKD
ROOT
HETATM    1  C   UNL     1     -13.416  13.809  72.510  1.00  0.00    -0.578 C  
HETATM    2  O   UNL     1     -13.318  13.456  71.137  1.00  0.00    -0.176 OA 
ENDROOT
BRANCH   2   3
HETATM    3  C   UNL     1     -12.579  12.348  70.815  1.00  0.00    -0.211 A  
HETATM    4  C   UNL     1     -12.819  11.063  71.322  1.00  0.00    -0.528 A  
HETATM    5  C   UNL     1     -12.040   9.970  70.910  1.00  0.00    -0.448 A  
HETATM    6  C   UNL     1     -11.543  12.548  69.882  1.00  0.00    -0.242 A  
HETATM    7  C   UNL     1     -11.071  10.149  69.923  1.00  0.00    -0.346 A  
HETATM    8  C   UNL     1     -10.840  11.424  69.408  1.00  0.00    -0.214 A  
BRANCH   5   9
HETATM    9  C   UNL     1     -12.256   8.655  71.568  1.00  0.00    -0.318 C  
HETATM   10  N   UNL     1     -11.145   7.801  71.594  1.00  0.00    -0.234 N  
HETATM   11  H   UNL     1     -10.300   8.110  71.112  1.00  0.00     0.000 HD 
HETATM   12  O   UNL     1     -13.342   8.362  72.037  1.00  0.00    -0.335 OA 
BRANCH  10  13
HETATM   13  S   UNL     1     -11.100   6.322  72.352  1.00  0.00    -0.284 S  
HETATM   14  O   UNL     1     -12.467   5.896  72.574  1.00  0.00    -0.112 OA 
HETATM   15  O   UNL     1     -10.196   6.486  73.474  1.00  0.00    -0.213 OA 
BRANCH  13  16
HETATM   16  C   UNL     1     -10.318   5.220  71.190  1.00  0.00    -0.221 A  
HETATM   17  C   UNL     1     -10.068   5.713  69.899  1.00  0.00    -0.289 A  
HETATM   18  C   UNL     1     -10.241   3.292  72.880  1.00  0.00    -0.235 C  
HETATM   19  C   UNL     1      -9.473   4.897  68.939  1.00  0.00    -0.202 A  
HETATM   20  C   UNL     1      -9.981   3.894  71.530  1.00  0.00    -0.209 A  
HETATM   21  C   UNL     1      -9.127   3.589  69.262  1.00  0.00    -0.200 A  
HETATM   22  C   UNL     1      -9.377   3.092  70.544  1.00  0.00    -0.227 A  
ENDBRANCH  13  16
ENDBRANCH  10  13
ENDBRANCH   5   9
BRANCH   6  23
HETATM   23  C   UNL     1     -11.195  13.918  69.340  1.00  0.00    -0.273 C  
BRANCH  23  24
HETATM   24  C   UNL     1     -11.605  14.023  67.891  1.00  0.00    -0.377 A  
HETATM   25  N   UNL     1     -12.180  13.388  65.822  1.00  0.00    -0.437 NA 
HETATM   26  C   UNL     1     -11.669  14.660  65.680  1.00  0.00    -0.304 A  
HETATM   27  C   UNL     1     -11.311  15.081  66.961  1.00  0.00    -0.319 A  
HETATM   28  C   UNL     1     -12.234  13.039  67.146  1.00  0.00    -0.138 A  
HETATM   29  C   UNL     1     -12.505  12.506  64.723  1.00  0.00    -0.457 C  
HETATM   30  C   UNL     1     -10.729  16.356  67.088  1.00  0.00    -0.233 A  
HETATM   31  C   UNL     1     -10.585  17.217  65.993  1.00  0.00    -0.204 A  
HETATM   32  C   UNL     1     -10.922  16.749  64.724  1.00  0.00    -0.038 A  
HETATM   33  C   UNL     1     -11.455  15.461  64.543  1.00  0.00    -0.314 A  
BRANCH  31  34
HETATM   34  N   UNL     1     -10.131  18.550  66.132  1.00  0.00    -0.385 N  
HETATM   35  H   UNL     1     -10.838  19.268  66.282  1.00  0.00     0.000 HD 
HETATM   36  C   UNL     1      -8.825  18.961  66.083  1.00  0.00    -0.154 C  
HETATM   37  O   UNL     1      -7.845  18.265  65.872  1.00  0.00    -0.491 OA 
BRANCH  36  38
HETATM   38  O   UNL     1      -8.729  20.302  66.320  1.00  0.00    -0.245 OA 
BRANCH  38  39
HETATM   39  C   UNL     1      -8.116  20.591  67.580  1.00  0.00    -0.256 C  
HETATM   40  C   UNL     1      -8.047  19.347  68.463  1.00  0.00    -0.396 C  
HETATM   41  C   UNL     1      -6.982  19.715  69.477  1.00  0.00    -0.314 C  
HETATM   42  C   UNL     1      -5.933  20.463  68.660  1.00  0.00    -0.348 C  
HETATM   43  C   UNL     1      -6.657  21.012  67.426  1.00  0.00    -0.439 C  
ENDBRANCH  38  39
ENDBRANCH  36  38
ENDBRANCH  31  34
ENDBRANCH  23  24
ENDBRANCH   6  23
ENDBRANCH   2   3
TORSDOF 9
ENDMDL
