MODEL       75
REMARK 921   NORMALIZED FREE ENERGY PREDICTED BY IDOCK:   -4.72 KCAL/MOL
REMARK 922        TOTAL FREE ENERGY PREDICTED BY IDOCK:  -10.06 KCAL/MOL
REMARK 923 INTER-LIGAND FREE ENERGY PREDICTED BY IDOCK:   -8.68 KCAL/MOL
REMARK 924 INTRA-LIGAND FREE ENERGY PREDICTED BY IDOCK:   -1.39 KCAL/MOL
REMARK 927      BINDING AFFINITY PREDICTED BY RF-SCORE:    0.00 PKD
ROOT
HETATM    1  C   UNL     1      -9.750   4.151  62.414  1.00  0.00    -0.130 C  
HETATM    2  C   UNL     1     -10.788   3.505  63.321  1.00  0.00    -0.180 C  
ENDROOT
BRANCH   2   3
HETATM    3  C   UNL     1     -10.813   4.202  64.678  1.00  0.00    -0.130 C  
BRANCH   3   4
HETATM    4  C   UNL     1      -9.421   4.291  65.317  1.00  0.00    -0.173 C  
HETATM    5  C   UNL     1      -9.302   5.430  66.359  1.00  0.00    -0.150 C  
HETATM    6  O   UNL     1      -9.522   6.673  65.679  1.00  0.00    -0.376 OA 
HETATM    7  C   UNL     1      -7.882   5.452  66.944  1.00  0.00    -0.101 C  
HETATM    8  C   UNL     1     -10.374   5.262  67.466  1.00  0.00    -0.221 C  
HETATM    9  H   UNL     1      -9.449   7.372  66.318  1.00  0.00     0.000 HD 
BRANCH   8  10
HETATM   10  C   UNL     1     -10.274   6.205  68.631  1.00  0.00    -0.220 C  
HETATM   11  C   UNL     1     -11.262   6.421  69.515  1.00  0.00    -0.477 C  
BRANCH  11  12
HETATM   12  C   UNL     1     -11.212   7.353  70.698  1.00  0.00    -0.292 C  
HETATM   13  C   UNL     1     -11.410   6.578  72.012  1.00  0.00    -0.285 C  
HETATM   14  C   UNL     1     -10.874   7.489  73.099  1.00  0.00    -0.448 C  
HETATM   15  O   UNL     1     -12.780   6.275  72.251  1.00  0.00    -0.537 OA 
HETATM   16  H   UNL     1     -12.902   5.796  73.062  1.00  0.00     0.000 HD 
HETATM   17  C   UNL     1      -9.775   8.213  72.387  1.00  0.00    -0.269 C  
HETATM   18  O   UNL     1      -8.872   8.788  72.983  1.00  0.00    -0.340 OA 
HETATM   19  C   UNL     1      -9.890   8.138  70.878  1.00  0.00    -0.203 C  
BRANCH  19  20
HETATM   20  C   UNL     1      -9.955   9.500  70.177  1.00  0.00    -0.285 C  
BRANCH  20  21
HETATM   21  C   UNL     1     -11.311  10.183  70.361  1.00  0.00    -0.401 C  
BRANCH  21  22
HETATM   22  C   UNL     1     -11.839  10.768  69.056  1.00  0.00    -0.325 C  
BRANCH  22  23
HETATM   23  C   UNL     1     -11.558  12.271  68.993  1.00  0.00    -0.368 C  
BRANCH  23  24
HETATM   24  C   UNL     1     -10.979  12.653  67.635  1.00  0.00    -0.275 C  
BRANCH  24  25
HETATM   25  C   UNL     1     -11.999  13.378  66.762  1.00  0.00    -0.447 C  
BRANCH  25  26
HETATM   26  C   UNL     1     -12.146  12.692  65.425  1.00  0.00    -0.462 C  
HETATM   27  O   UNL     1     -13.199  12.526  64.829  1.00  0.00    -0.839 OA 
BRANCH  26  28
HETATM   28  O   UNL     1     -10.927  12.285  64.976  1.00  0.00    -0.285 OA 
HETATM   29  C   UNL     1     -10.858  12.172  63.555  1.00  0.00    -0.458 C  
ENDBRANCH  26  28
ENDBRANCH  25  26
ENDBRANCH  24  25
ENDBRANCH  23  24
ENDBRANCH  22  23
ENDBRANCH  21  22
ENDBRANCH  20  21
ENDBRANCH  19  20
ENDBRANCH  11  12
ENDBRANCH   8  10
ENDBRANCH   3   4
ENDBRANCH   2   3
TORSDOF 12
ENDMDL
