MODEL      120
REMARK 921   NORMALIZED FREE ENERGY PREDICTED BY IDOCK:   -0.14 KCAL/MOL
REMARK 922        TOTAL FREE ENERGY PREDICTED BY IDOCK:   -0.98 KCAL/MOL
REMARK 923 INTER-LIGAND FREE ENERGY PREDICTED BY IDOCK:   -0.68 KCAL/MOL
REMARK 924 INTRA-LIGAND FREE ENERGY PREDICTED BY IDOCK:   -0.29 KCAL/MOL
REMARK 927      BINDING AFFINITY PREDICTED BY RF-SCORE:    0.00 PKD
ROOT
HETATM    1  C   UNL     1     -10.429   9.409  68.773  1.00  0.00    -0.236 C  
HETATM    2  C   UNL     1     -10.165  10.583  67.809  1.00  0.00    -0.190 C  
HETATM    3  N   UNL     1      -9.253  11.485  68.547  1.00  0.00    -0.184 NA 
HETATM    4  C   UNL     1     -11.585   9.705  69.741  1.00  0.00    -0.022 C  
HETATM    5  C   UNL     1      -8.653  10.758  69.661  1.00  0.00     0.267 C  
HETATM    6  C   UNL     1      -9.070   9.284  69.469  1.00  0.00    -0.160 C  
HETATM    7  C   UNL     1     -11.504   8.878  71.022  1.00  0.00    -0.351 C  
HETATM    8  N   UNL     1      -9.094   8.461  70.682  1.00  0.00    -0.150 NA 
HETATM    9  H   UNL     1      -8.173   8.432  71.119  1.00  0.00     0.000 HD 
HETATM   10  C   UNL     1     -10.114   8.883  71.645  1.00  0.00    -0.341 C  
ENDROOT
BRANCH   3  11
HETATM   11  C   UNL     1      -8.812  12.714  68.075  1.00  0.00    -0.195 A  
HETATM   12  C   UNL     1      -6.872  14.103  67.433  1.00  0.00    -0.033 A  
HETATM   13  F   UNL     1      -6.537  11.944  68.166  1.00  0.00    -0.052 F  
HETATM   14  C   UNL     1      -7.422  12.909  67.867  1.00  0.00    -0.131 A  
HETATM   15  C   UNL     1      -7.045  16.422  66.673  1.00  0.00    -0.140 C  
HETATM   16  O   UNL     1      -5.821  16.538  66.647  1.00  0.00    -0.330 OA 
HETATM   17  C   UNL     1      -7.886  17.528  66.221  1.00  0.00    -0.322 C  
HETATM   18  C   UNL     1      -7.702  15.171  67.125  1.00  0.00    -0.223 A  
HETATM   19  C   UNL     1      -7.369  18.804  65.677  1.00  0.00    -0.076 C  
HETATM   20  C   UNL     1      -9.213  17.350  66.328  1.00  0.00    -0.208 C  
HETATM   21  N   UNL     1      -9.872  16.251  66.861  1.00  0.00    -0.240 NA 
HETATM   22  O   UNL     1      -6.024  18.898  65.663  1.00  0.00    -0.166 OA 
HETATM   23  O   UNL     1      -8.088  19.706  65.274  1.00  0.00    -0.161 OA 
HETATM   24  C   UNL     1      -9.109  15.085  67.254  1.00  0.00    -0.201 A  
HETATM   25  C   UNL     1      -9.650  13.853  67.774  1.00  0.00    -0.222 A  
BRANCH  21  26
HETATM   26  C   UNL     1     -11.345  16.238  66.705  1.00  0.00     0.371 C  
HETATM   27  C   UNL     1     -12.030  17.091  65.666  1.00  0.00     2.741 C  
HETATM   28  C   UNL     1     -12.053  15.608  65.519  1.00  0.00     0.761 C  
ENDBRANCH  21  26
BRANCH  25  29
HETATM   29  O   UNL     1     -10.967  13.885  68.192  1.00  0.00    -0.238 OA 
HETATM   30  C   UNL     1     -11.228  14.441  69.478  1.00  0.00    -0.254 C  
ENDBRANCH  25  29
ENDBRANCH   3  11
TORSDOF 3
ENDMDL
