MODEL       41
REMARK 921   NORMALIZED FREE ENERGY PREDICTED BY IDOCK:   -5.12 KCAL/MOL
REMARK 922        TOTAL FREE ENERGY PREDICTED BY IDOCK:   -9.48 KCAL/MOL
REMARK 923 INTER-LIGAND FREE ENERGY PREDICTED BY IDOCK:   -8.67 KCAL/MOL
REMARK 924 INTRA-LIGAND FREE ENERGY PREDICTED BY IDOCK:   -0.82 KCAL/MOL
REMARK 927      BINDING AFFINITY PREDICTED BY RF-SCORE:    0.00 PKD
ROOT
HETATM    1  C   UNL     1     -10.694   5.097  73.272  1.00  0.00    -0.266 C  
HETATM    2  N   UNL     1     -11.771   6.028  72.970  1.00  0.00    -0.486 NA 
HETATM    3  H   UNL     1     -12.675   5.971  73.438  1.00  0.00     0.000 HD 
ENDROOT
BRANCH   2   4
HETATM    4  C   UNL     1     -11.504   7.009  72.001  1.00  0.00    -0.271 A  
HETATM    5  C   UNL     1     -11.648   8.358  72.343  1.00  0.00    -0.450 A  
HETATM    6  C   UNL     1     -11.431   9.368  71.398  1.00  0.00    -0.449 A  
HETATM    7  C   UNL     1     -11.016   9.050  70.101  1.00  0.00    -0.256 A  
HETATM    8  C   UNL     1     -10.998   6.709  70.732  1.00  0.00    -0.318 A  
HETATM    9  C   UNL     1     -10.777   7.713  69.784  1.00  0.00    -0.243 A  
BRANCH   7  10
HETATM   10  C   UNL     1     -10.974  10.111  69.088  1.00  0.00    -0.270 C  
HETATM   11  C   UNL     1     -11.742  11.213  69.075  1.00  0.00    -0.408 C  
BRANCH  11  12
HETATM   12  C   UNL     1     -11.577  12.284  68.078  1.00  0.00    -0.408 A  
HETATM   13  C   UNL     1     -11.336  11.999  66.732  1.00  0.00    -0.398 A  
HETATM   14  C   UNL     1     -11.132  13.023  65.810  1.00  0.00    -0.302 A  
HETATM   15  C   UNL     1     -11.185  14.361  66.204  1.00  0.00    -0.336 A  
HETATM   16  C   UNL     1     -11.674  13.627  68.468  1.00  0.00    -0.392 A  
HETATM   17  C   UNL     1     -11.472  14.657  67.539  1.00  0.00    -0.378 A  
BRANCH  15  18
HETATM   18  O   UNL     1     -10.970  15.435  65.375  1.00  0.00    -0.346 OA 
BRANCH  18  19
HETATM   19  C   UNL     1     -10.157  16.464  65.941  1.00  0.00    -0.347 C  
BRANCH  19  20
HETATM   20  C   UNL     1      -8.701  16.040  66.032  1.00  0.00    -0.232 C  
BRANCH  20  21
HETATM   21  O   UNL     1      -8.267  16.315  67.366  1.00  0.00    -0.150 OA 
BRANCH  21  22
HETATM   22  C   UNL     1      -7.108  17.142  67.394  1.00  0.00    -0.155 C  
BRANCH  22  23
HETATM   23  C   UNL     1      -7.252  18.173  68.509  1.00  0.00    -0.268 C  
BRANCH  23  24
HETATM   24  O   UNL     1      -7.826  19.362  67.967  1.00  0.00    -0.283 OA 
BRANCH  24  25
HETATM   25  C   UNL     1      -9.240  19.398  68.151  1.00  0.00    -0.336 C  
HETATM   26  C   UNL     1      -9.900  19.843  66.859  1.00  0.00    -0.414 C  
HETATM   27  F   UNL     1     -11.248  19.880  67.031  1.00  0.00    -0.506 F  
ENDBRANCH  24  25
ENDBRANCH  23  24
ENDBRANCH  22  23
ENDBRANCH  21  22
ENDBRANCH  20  21
ENDBRANCH  19  20
ENDBRANCH  18  19
ENDBRANCH  15  18
ENDBRANCH  11  12
ENDBRANCH   7  10
ENDBRANCH   2   4
TORSDOF 11
ENDMDL
