MODEL       19
REMARK 921   NORMALIZED FREE ENERGY PREDICTED BY IDOCK:   -3.88 KCAL/MOL
REMARK 922        TOTAL FREE ENERGY PREDICTED BY IDOCK:  -15.90 KCAL/MOL
REMARK 923 INTER-LIGAND FREE ENERGY PREDICTED BY IDOCK:  -12.68 KCAL/MOL
REMARK 924 INTRA-LIGAND FREE ENERGY PREDICTED BY IDOCK:   -3.22 KCAL/MOL
REMARK 927      BINDING AFFINITY PREDICTED BY RF-SCORE:    0.00 PKD
ROOT
HETATM    1  C   UNL     1     -12.361  15.411  70.533  1.00  0.00    -0.452 C  
HETATM    2  C   UNL     1     -11.854  15.417  69.101  1.00  0.00    -0.357 C  
ENDROOT
BRANCH   2   3
HETATM    3  C   UNL     1     -10.440  14.846  69.017  1.00  0.00    -0.247 C  
BRANCH   3   4
HETATM    4  C   UNL     1      -9.393  15.915  69.323  1.00  0.00    -0.259 C  
BRANCH   4   5
HETATM    5  C   UNL     1      -7.991  15.406  68.999  1.00  0.00    -0.202 C  
BRANCH   5   6
HETATM    6  C   UNL     1      -7.676  15.582  67.518  1.00  0.00    -0.195 C  
BRANCH   6   7
HETATM    7  C   UNL     1      -6.496  16.529  67.326  1.00  0.00    -0.216 C  
BRANCH   7   8
HETATM    8  C   UNL     1      -6.982  17.922  66.949  1.00  0.00    -0.211 C  
BRANCH   8   9
HETATM    9  C   UNL     1      -6.827  18.889  68.119  1.00  0.00    -0.261 C  
BRANCH   9  10
HETATM   10  C   UNL     1      -8.184  19.449  68.522  1.00  0.00    -0.392 C  
BRANCH  10  11
HETATM   11  C   UNL     1      -9.083  19.642  67.310  1.00  0.00    -0.396 C  
BRANCH  11  12
HETATM   12  C   UNL     1     -10.538  19.434  67.693  1.00  0.00    -0.458 C  
BRANCH  12  13
HETATM   13  O   UNL     1     -10.962  18.185  67.161  1.00  0.00    -0.263 OA 
BRANCH  13  14
HETATM   14  C   UNL     1     -10.437  17.992  65.852  1.00  0.00    -0.264 C  
BRANCH  14  15
HETATM   15  C   UNL     1     -10.602  16.535  65.457  1.00  0.00    -0.295 C  
BRANCH  15  16
HETATM   16  O   UNL     1     -11.322  16.485  64.230  1.00  0.00    -1.020 OA 
BRANCH  16  17
HETATM   17  C   UNL     1     -12.343  15.495  64.269  1.00  0.00     0.004 C  
BRANCH  17  18
HETATM   18  C   UNL     1     -11.685  14.127  64.346  1.00  0.00    -0.392 C  
BRANCH  18  19
HETATM   19  O   UNL     1     -12.404  13.223  63.516  1.00  0.00    -0.698 OA 
BRANCH  19  20
HETATM   20  C   UNL     1     -11.983  11.873  63.721  1.00  0.00    -0.445 C  
BRANCH  20  21
HETATM   21  C   UNL     1     -10.554  11.727  63.211  1.00  0.00    -0.368 C  
BRANCH  21  22
HETATM   22  O   UNL     1      -9.886  10.736  63.997  1.00  0.00    -0.277 OA 
BRANCH  22  23
HETATM   23  C   UNL     1     -10.209  10.860  65.377  1.00  0.00    -0.277 C  
BRANCH  23  24
HETATM   24  C   UNL     1      -9.987   9.519  66.058  1.00  0.00    -0.278 C  
BRANCH  24  25
HETATM   25  O   UNL     1     -10.654   9.529  67.317  1.00  0.00    -0.264 OA 
BRANCH  25  26
HETATM   26  C   UNL     1     -11.233  10.800  67.584  1.00  0.00    -0.299 C  
BRANCH  26  27
HETATM   27  C   UNL     1     -11.023  11.134  69.054  1.00  0.00    -0.235 C  
BRANCH  27  28
HETATM   28  O   UNL     1     -12.216  10.840  69.773  1.00  0.00    -0.323 OA 
BRANCH  28  29
HETATM   29  C   UNL     1     -12.325  11.649  70.940  1.00  0.00    -0.336 C  
BRANCH  29  30
HETATM   30  C   UNL     1     -13.357  11.035  71.872  1.00  0.00    -0.318 C  
BRANCH  30  31
HETATM   31  O   UNL     1     -12.918   9.736  72.258  1.00  0.00    -0.397 OA 
BRANCH  31  32
HETATM   32  C   UNL     1     -13.872   8.740  71.901  1.00  0.00    -0.442 C  
BRANCH  32  33
HETATM   33  C   UNL     1     -13.137   7.460  71.532  1.00  0.00    -0.374 C  
BRANCH  33  34
HETATM   34  O   UNL     1     -11.737   7.721  71.484  1.00  0.00    -0.265 OA 
BRANCH  34  35
HETATM   35  C   UNL     1     -11.220   7.549  70.167  1.00  0.00    -0.196 C  
BRANCH  35  36
HETATM   36  C   UNL     1     -11.168   6.061  69.848  1.00  0.00    -0.368 C  
BRANCH  36  37
HETATM   37  O   UNL     1     -10.539   5.360  70.921  1.00  0.00    -0.246 OA 
BRANCH  37  38
HETATM   38  C   UNL     1      -9.642   4.359  70.422  1.00  0.00    -0.196 C  
BRANCH  38  39
HETATM   39  C   UNL     1      -8.224   4.918  70.476  1.00  0.00    -0.096 C  
HETATM   40  O   UNL     1      -8.153   5.969  71.439  1.00  0.00    -0.111 OA 
HETATM   41  H   UNL     1      -7.269   6.316  71.472  1.00  0.00     0.000 HD 
ENDBRANCH  38  39
ENDBRANCH  37  38
ENDBRANCH  36  37
ENDBRANCH  35  36
ENDBRANCH  34  35
ENDBRANCH  33  34
ENDBRANCH  32  33
ENDBRANCH  31  32
ENDBRANCH  30  31
ENDBRANCH  29  30
ENDBRANCH  28  29
ENDBRANCH  27  28
ENDBRANCH  26  27
ENDBRANCH  25  26
ENDBRANCH  24  25
ENDBRANCH  23  24
ENDBRANCH  22  23
ENDBRANCH  21  22
ENDBRANCH  20  21
ENDBRANCH  19  20
ENDBRANCH  18  19
ENDBRANCH  17  18
ENDBRANCH  16  17
ENDBRANCH  15  16
ENDBRANCH  14  15
ENDBRANCH  13  14
ENDBRANCH  12  13
ENDBRANCH  11  12
ENDBRANCH  10  11
ENDBRANCH   9  10
ENDBRANCH   8   9
ENDBRANCH   7   8
ENDBRANCH   6   7
ENDBRANCH   5   6
ENDBRANCH   4   5
ENDBRANCH   3   4
ENDBRANCH   2   3
TORSDOF 37
ENDMDL
