MODEL       44
REMARK 921   NORMALIZED FREE ENERGY PREDICTED BY IDOCK:   -5.05 KCAL/MOL
REMARK 922        TOTAL FREE ENERGY PREDICTED BY IDOCK:   -8.58 KCAL/MOL
REMARK 923 INTER-LIGAND FREE ENERGY PREDICTED BY IDOCK:   -7.91 KCAL/MOL
REMARK 924 INTRA-LIGAND FREE ENERGY PREDICTED BY IDOCK:   -0.67 KCAL/MOL
REMARK 927      BINDING AFFINITY PREDICTED BY RF-SCORE:    0.00 PKD
ROOT
HETATM    1  C   UNL     1     -12.629  14.202  65.781  1.00  0.00    -0.475 C  
HETATM    2  C   UNL     1     -11.236  13.832  66.357  1.00  0.00    -0.321 C  
HETATM    3  C   UNL     1     -10.438  13.231  65.164  1.00  0.00    -0.346 C  
ENDROOT
BRANCH   2   4
HETATM    4  C   UNL     1     -11.365  12.749  67.467  1.00  0.00    -0.361 A  
HETATM    5  C   UNL     1     -11.892  13.035  68.743  1.00  0.00    -0.355 A  
HETATM    6  C   UNL     1     -12.041  12.034  69.711  1.00  0.00    -0.317 A  
HETATM    7  C   UNL     1     -10.969  11.421  67.223  1.00  0.00    -0.336 A  
HETATM    8  C   UNL     1     -11.150  10.417  68.183  1.00  0.00    -0.344 A  
HETATM    9  C   UNL     1     -11.667  10.720  69.436  1.00  0.00    -0.306 A  
BRANCH   9  10
HETATM   10  O   UNL     1     -11.845   9.829  70.460  1.00  0.00    -0.266 OA 
BRANCH  10  11
HETATM   11  C   UNL     1     -12.775  10.226  71.469  1.00  0.00    -0.452 C  
BRANCH  11  12
HETATM   12  C   UNL     1     -13.186   9.015  72.234  1.00  0.00    -0.460 C  
HETATM   13  O   UNL     1     -12.104   8.170  72.650  1.00  0.00    -0.359 OA 
HETATM   14  C   UNL     1     -13.008   7.632  71.671  1.00  0.00    -0.350 C  
ENDBRANCH  11  12
ENDBRANCH  10  11
ENDBRANCH   9  10
ENDBRANCH   2   4
BRANCH   2  15
HETATM   15  C   UNL     1     -10.611  15.160  66.857  1.00  0.00    -0.297 A  
HETATM   16  C   UNL     1     -10.038  17.511  66.478  1.00  0.00    -0.331 A  
HETATM   17  C   UNL     1      -9.290  17.552  67.651  1.00  0.00    -0.244 A  
HETATM   18  C   UNL     1     -10.697  16.337  66.095  1.00  0.00    -0.198 A  
HETATM   19  C   UNL     1      -9.827  15.216  68.027  1.00  0.00    -0.213 A  
HETATM   20  C   UNL     1      -9.178  16.396  68.416  1.00  0.00    -0.217 A  
BRANCH  17  21
HETATM   21  O   UNL     1      -8.631  18.649  68.137  1.00  0.00    -0.290 OA 
BRANCH  21  22
HETATM   22  C   UNL     1      -7.204  18.597  68.057  1.00  0.00    -0.246 C  
BRANCH  22  23
HETATM   23  C   UNL     1      -6.653  19.935  68.417  1.00  0.00    -0.286 C  
HETATM   24  C   UNL     1      -6.136  20.239  69.795  1.00  0.00    -0.350 C  
HETATM   25  O   UNL     1      -5.248  19.941  68.707  1.00  0.00    -0.190 OA 
ENDBRANCH  22  23
ENDBRANCH  21  22
ENDBRANCH  17  21
ENDBRANCH   2  15
TORSDOF 8
ENDMDL
