MODEL      128
REMARK 921   NORMALIZED FREE ENERGY PREDICTED BY IDOCK:   -4.35 KCAL/MOL
REMARK 922        TOTAL FREE ENERGY PREDICTED BY IDOCK:   -6.17 KCAL/MOL
REMARK 923 INTER-LIGAND FREE ENERGY PREDICTED BY IDOCK:   -5.51 KCAL/MOL
REMARK 924 INTRA-LIGAND FREE ENERGY PREDICTED BY IDOCK:   -0.66 KCAL/MOL
REMARK 927      BINDING AFFINITY PREDICTED BY RF-SCORE:    0.00 PKD
ROOT
HETATM    1  O   UNL     1     -10.171  19.440  67.562  1.00  0.00    -0.371 OA 
HETATM    2  C   UNL     1      -9.871  18.133  68.047  1.00  0.00    -0.325 C  
HETATM    3  H   UNL     1      -9.787  20.082  68.147  1.00  0.00     0.000 HD 
ENDROOT
BRANCH   2   4
HETATM    4  C   UNL     1     -10.489  17.098  67.104  1.00  0.00    -0.291 C  
BRANCH   4   5
HETATM    5  N   UNL     1     -10.916  15.835  67.738  1.00  0.00    -0.316 NA 
HETATM    6  C   UNL     1     -11.907  15.162  66.864  1.00  0.00     0.004 C  
HETATM    7  C   UNL     1     -11.286  14.547  65.585  1.00  0.00    -0.335 C  
HETATM    8  N   UNL     1     -10.182  13.594  65.853  1.00  0.00    -0.304 NA 
HETATM    9  C   UNL     1      -9.188  14.267  66.711  1.00  0.00    -0.264 C  
HETATM   10  C   UNL     1      -9.793  14.899  67.986  1.00  0.00    -0.216 C  
BRANCH   8  11
HETATM   11  C   UNL     1     -10.642  12.330  66.467  1.00  0.00    -0.234 C  
BRANCH  11  12
HETATM   12  C   UNL     1      -9.550  11.266  66.320  1.00  0.00    -0.235 C  
BRANCH  12  13
HETATM   13  C   UNL     1      -9.735   9.963  67.025  1.00  0.00    -0.230 C  
HETATM   14  C   UNL     1      -9.117   9.488  68.145  1.00  0.00    -0.128 C  
HETATM   15  C   UNL     1      -9.533   8.081  68.574  1.00  0.00    -0.143 A  
HETATM   16  C   UNL     1     -10.653   7.408  68.027  1.00  0.00    -0.235 A  
HETATM   17  C   UNL     1     -11.006   6.101  68.389  1.00  0.00    -0.391 A  
HETATM   18  C   UNL     1     -10.270   5.431  69.344  1.00  0.00    -0.334 A  
HETATM   19  C   UNL     1      -9.184   6.070  69.927  1.00  0.00    -0.159 A  
HETATM   20  C   UNL     1      -8.806   7.379  69.549  1.00  0.00    -0.137 A  
HETATM   21  S   UNL     1      -7.375   7.983  70.396  1.00  0.00    -0.064 SA 
HETATM   22  C   UNL     1      -7.214   9.659  69.849  1.00  0.00    -0.106 A  
HETATM   23  C   UNL     1      -8.016  10.277  68.872  1.00  0.00    -0.113 A  
HETATM   24  C   UNL     1      -7.700  11.636  68.624  1.00  0.00    -0.134 A  
HETATM   25  C   UNL     1      -6.626  12.307  69.221  1.00  0.00    -0.099 A  
HETATM   26  C   UNL     1      -5.847  11.673  70.158  1.00  0.00    -0.153 A  
HETATM   27 CL   UNL     1      -6.264  13.928  68.756  1.00  0.00    -0.083 Cl 
HETATM   28  C   UNL     1      -6.154  10.360  70.484  1.00  0.00    -0.116 A  
ENDBRANCH  12  13
ENDBRANCH  11  12
ENDBRANCH   8  11
ENDBRANCH   4   5
ENDBRANCH   2   4
TORSDOF 5
ENDMDL
