MODEL        1
REMARK 921   NORMALIZED FREE ENERGY PREDICTED BY IDOCK:   -9.05 KCAL/MOL
REMARK 922        TOTAL FREE ENERGY PREDICTED BY IDOCK:  -11.91 KCAL/MOL
REMARK 923 INTER-LIGAND FREE ENERGY PREDICTED BY IDOCK:  -11.16 KCAL/MOL
REMARK 924 INTRA-LIGAND FREE ENERGY PREDICTED BY IDOCK:   -0.75 KCAL/MOL
REMARK 927      BINDING AFFINITY PREDICTED BY RF-SCORE:    0.00 PKD
ROOT
HETATM    1  O   UNL     1     -14.197   9.157  72.874  1.00  0.00    -1.016 OA 
HETATM    2  C   UNL     1     -13.201   9.485  72.005  1.00  0.00    -0.452 A  
HETATM    3  H   UNL     1     -14.244   8.230  73.077  1.00  0.00     0.000 HD 
HETATM    4  N   UNL     1     -13.136  10.796  71.717  1.00  0.00    -0.478 NA 
HETATM    5  N   UNL     1     -12.186  11.232  70.853  1.00  0.00    -0.371 NA 
HETATM    6  C   UNL     1     -11.313  10.353  70.295  1.00  0.00    -0.328 A  
HETATM    7  C   UNL     1     -11.346   8.969  70.595  1.00  0.00    -0.311 A  
HETATM    8  C   UNL     1     -11.554   6.221  71.273  1.00  0.00    -0.336 A  
HETATM    9  C   UNL     1     -10.452   8.000  70.073  1.00  0.00    -0.228 A  
HETATM   10  C   UNL     1     -12.346   8.520  71.484  1.00  0.00    -0.354 A  
HETATM   11  C   UNL     1     -10.552   6.647  70.412  1.00  0.00    -0.266 A  
HETATM   12  C   UNL     1     -12.445   7.150  71.806  1.00  0.00    -0.385 A  
ENDROOT
BRANCH   6  13
HETATM   13  C   UNL     1     -10.303  10.905  69.312  1.00  0.00    -0.211 C  
BRANCH  13  14
HETATM   14  C   UNL     1     -10.793  11.911  68.288  1.00  0.00    -0.261 A  
HETATM   15  C   UNL     1     -11.966  13.741  66.524  1.00  0.00    -0.434 A  
HETATM   16  C   UNL     1     -11.305  11.477  67.058  1.00  0.00    -0.340 A  
HETATM   17  C   UNL     1     -10.789  13.289  68.572  1.00  0.00    -0.286 A  
HETATM   18  F   UNL     1     -12.656  14.552  65.710  1.00  0.00    -0.383 F  
HETATM   19  C   UNL     1     -11.352  14.221  67.677  1.00  0.00    -0.344 A  
HETATM   20  C   UNL     1     -11.900  12.389  66.187  1.00  0.00    -0.442 A  
BRANCH  19  21
HETATM   21  C   UNL     1     -11.353  15.650  68.083  1.00  0.00    -0.340 C  
HETATM   22  N   UNL     1     -10.580  16.613  67.433  1.00  0.00    -0.316 N  
HETATM   23  C   UNL     1     -10.630  18.003  67.920  1.00  0.00    -0.372 C  
HETATM   24  O   UNL     1     -12.030  15.928  69.077  1.00  0.00    -0.378 OA 
HETATM   25  C   UNL     1      -9.220  18.541  68.211  1.00  0.00    -0.321 C  
HETATM   26  N   UNL     1      -8.336  18.362  67.050  1.00  0.00    -0.246 N  
HETATM   27  C   UNL     1      -8.280  16.990  66.545  1.00  0.00    -0.279 C  
HETATM   28  C   UNL     1      -7.600  19.441  66.586  1.00  0.00    -0.254 C  
HETATM   29  C   UNL     1      -9.681  16.421  66.288  1.00  0.00    -0.308 C  
HETATM   30  O   UNL     1      -7.687  20.562  67.077  1.00  0.00    -0.313 OA 
BRANCH  28  31
HETATM   31  C   UNL     1      -6.698  19.237  65.409  1.00  0.00    -0.293 C  
HETATM   32  C   UNL     1      -6.341  20.426  64.544  1.00  0.00    -0.332 C  
HETATM   33  C   UNL     1      -5.292  19.797  65.412  1.00  0.00    -0.185 C  
ENDBRANCH  28  31
ENDBRANCH  19  21
ENDBRANCH  13  14
ENDBRANCH   6  13
TORSDOF 4
ENDMDL
