MODEL        4
REMARK 921   NORMALIZED FREE ENERGY PREDICTED BY IDOCK:   -5.96 KCAL/MOL
REMARK 922        TOTAL FREE ENERGY PREDICTED BY IDOCK:  -12.17 KCAL/MOL
REMARK 923 INTER-LIGAND FREE ENERGY PREDICTED BY IDOCK:  -10.76 KCAL/MOL
REMARK 924 INTRA-LIGAND FREE ENERGY PREDICTED BY IDOCK:   -1.42 KCAL/MOL
REMARK 927      BINDING AFFINITY PREDICTED BY RF-SCORE:    0.00 PKD
ROOT
HETATM    1  C   UNL     1      -8.219  20.367  67.122  1.00  0.00    -0.374 C  
HETATM    2  C   UNL     1      -9.706  20.235  66.824  1.00  0.00    -0.571 C  
ENDROOT
BRANCH   2   3
HETATM    3  C   UNL     1     -10.394  19.420  67.913  1.00  0.00    -0.542 C  
BRANCH   3   4
HETATM    4  C   UNL     1      -9.460  18.379  68.545  1.00  0.00    -0.355 C  
HETATM    5  C   UNL     1      -9.881  16.921  68.242  1.00  0.00    -0.266 C  
HETATM    6  O   UNL     1     -11.178  16.709  68.816  1.00  0.00    -0.308 OA 
HETATM    7  C   UNL     1      -8.900  15.948  68.913  1.00  0.00    -0.225 C  
HETATM    8  C   UNL     1      -9.960  16.689  66.712  1.00  0.00    -0.284 C  
HETATM    9  H   UNL     1     -11.437  15.814  68.630  1.00  0.00     0.000 HD 
BRANCH   8  10
HETATM   10  C   UNL     1     -10.200  15.274  66.270  1.00  0.00    -0.300 C  
HETATM   11  C   UNL     1     -11.402  14.784  65.924  1.00  0.00    -0.331 C  
BRANCH  11  12
HETATM   12  C   UNL     1     -11.696  13.376  65.474  1.00  0.00    -0.366 C  
HETATM   13  C   UNL     1     -11.426  13.218  63.968  1.00  0.00    -0.388 C  
HETATM   14  C   UNL     1     -11.285  11.725  63.741  1.00  0.00    -0.518 C  
HETATM   15  O   UNL     1     -12.488  13.740  63.178  1.00  0.00    -1.089 OA 
HETATM   16  H   UNL     1     -12.321  13.642  62.248  1.00  0.00     0.000 HD 
HETATM   17  C   UNL     1     -10.689  11.267  65.035  1.00  0.00    -0.256 C  
HETATM   18  O   UNL     1     -10.105  10.195  65.148  1.00  0.00    -0.326 OA 
HETATM   19  C   UNL     1     -10.866  12.266  66.161  1.00  0.00    -0.314 C  
BRANCH  19  20
HETATM   20  C   UNL     1     -11.592  11.713  67.393  1.00  0.00    -0.330 C  
BRANCH  20  21
HETATM   21  C   UNL     1     -10.987  12.226  68.701  1.00  0.00    -0.276 C  
BRANCH  21  22
HETATM   22  C   UNL     1     -11.971  12.129  69.862  1.00  0.00    -0.380 C  
BRANCH  22  23
HETATM   23  C   UNL     1     -12.242  10.663  70.210  1.00  0.00    -0.417 C  
BRANCH  23  24
HETATM   24  C   UNL     1     -12.725  10.533  71.650  1.00  0.00    -0.550 C  
BRANCH  24  25
HETATM   25  C   UNL     1     -13.429   9.202  71.898  1.00  0.00    -0.492 C  
BRANCH  25  26
HETATM   26  C   UNL     1     -12.425   8.082  72.042  1.00  0.00    -0.320 C  
HETATM   27  O   UNL     1     -11.474   8.082  72.808  1.00  0.00    -0.402 OA 
BRANCH  26  28
HETATM   28  O   UNL     1     -12.737   7.067  71.191  1.00  0.00    -0.381 OA 
HETATM   29  C   UNL     1     -11.653   6.685  70.345  1.00  0.00    -0.398 C  
ENDBRANCH  26  28
ENDBRANCH  25  26
ENDBRANCH  24  25
ENDBRANCH  23  24
ENDBRANCH  22  23
ENDBRANCH  21  22
ENDBRANCH  20  21
ENDBRANCH  19  20
ENDBRANCH  11  12
ENDBRANCH   8  10
ENDBRANCH   3   4
ENDBRANCH   2   3
TORSDOF 12
ENDMDL
