MODEL      132
REMARK 921   NORMALIZED FREE ENERGY PREDICTED BY IDOCK:   -3.67 KCAL/MOL
REMARK 922        TOTAL FREE ENERGY PREDICTED BY IDOCK:   -9.43 KCAL/MOL
REMARK 923 INTER-LIGAND FREE ENERGY PREDICTED BY IDOCK:   -7.87 KCAL/MOL
REMARK 924 INTRA-LIGAND FREE ENERGY PREDICTED BY IDOCK:   -1.56 KCAL/MOL
REMARK 927      BINDING AFFINITY PREDICTED BY RF-SCORE:    0.00 PKD
ROOT
HETATM    1  C   UNL     1      -9.240  19.914  67.158  1.00  0.00    -0.463 C  
HETATM    2  C   UNL     1     -10.038  19.226  68.253  1.00  0.00    -0.516 C  
ENDROOT
BRANCH   2   3
HETATM    3  C   UNL     1     -10.522  17.851  67.800  1.00  0.00    -0.409 C  
BRANCH   3   4
HETATM    4  C   UNL     1     -10.211  17.615  66.325  1.00  0.00    -0.362 C  
BRANCH   4   5
HETATM    5  C   UNL     1      -9.850  16.153  66.075  1.00  0.00    -0.375 C  
BRANCH   5   6
HETATM    6  C   UNL     1     -10.836  15.503  65.109  1.00  0.00    -0.452 C  
BRANCH   6   7
HETATM    7  C   UNL     1     -12.015  14.901  65.866  1.00  0.00    -0.054 C  
BRANCH   7   8
HETATM    8  C   UNL     1     -12.525  13.648  65.162  1.00  0.00    -0.488 C  
BRANCH   8   9
HETATM    9  C   UNL     1     -11.449  13.061  64.256  1.00  0.00    -0.428 C  
BRANCH   9  10
HETATM   10  C   UNL     1     -10.961  11.723  64.802  1.00  0.00    -0.360 C  
BRANCH  10  11
HETATM   11  C   UNL     1      -9.827  11.925  65.800  1.00  0.00    -0.262 C  
BRANCH  11  12
HETATM   12  C   UNL     1     -10.234  11.438  67.186  1.00  0.00    -0.234 C  
BRANCH  12  13
HETATM   13  C   UNL     1     -10.653  12.609  68.067  1.00  0.00    -0.233 C  
BRANCH  13  14
HETATM   14  C   UNL     1     -11.852  12.237  68.934  1.00  0.00    -0.355 C  
BRANCH  14  15
HETATM   15  C   UNL     1     -11.512  11.073  69.860  1.00  0.00    -0.400 C  
BRANCH  15  16
HETATM   16  C   UNL     1     -12.513  10.981  71.000  1.00  0.00    -0.409 C  
BRANCH  16  17
HETATM   17  N   UNL     1     -12.817   9.558  71.269  1.00  0.00    -0.337 NA 
HETATM   18  C   UNL     1     -11.816   8.648  71.266  1.00  0.00    -0.295 A  
HETATM   19  C   UNL     1     -12.083   7.303  71.480  1.00  0.00    -0.365 A  
HETATM   20  C   UNL     1     -13.393   6.895  71.701  1.00  0.00    -0.296 A  
HETATM   21  C   UNL     1     -14.409   7.843  71.717  1.00  0.00    -0.589 A  
HETATM   22  C   UNL     1     -14.096   9.180  71.499  1.00  0.00    -0.188 A  
ENDBRANCH  16  17
ENDBRANCH  15  16
ENDBRANCH  14  15
ENDBRANCH  13  14
ENDBRANCH  12  13
ENDBRANCH  11  12
ENDBRANCH  10  11
ENDBRANCH   9  10
ENDBRANCH   8   9
ENDBRANCH   7   8
ENDBRANCH   6   7
ENDBRANCH   5   6
ENDBRANCH   4   5
ENDBRANCH   3   4
ENDBRANCH   2   3
TORSDOF 15
ENDMDL
