MODEL        3
REMARK 921   NORMALIZED FREE ENERGY PREDICTED BY IDOCK:   -7.02 KCAL/MOL
REMARK 922        TOTAL FREE ENERGY PREDICTED BY IDOCK:  -17.33 KCAL/MOL
REMARK 923 INTER-LIGAND FREE ENERGY PREDICTED BY IDOCK:  -15.29 KCAL/MOL
REMARK 924 INTRA-LIGAND FREE ENERGY PREDICTED BY IDOCK:   -2.03 KCAL/MOL
REMARK 927      BINDING AFFINITY PREDICTED BY RF-SCORE:    0.00 PKD
ROOT
HETATM    1  C   UNL     1     -13.562   8.810  72.513  1.00  0.00    -0.416 C  
HETATM    2  C   UNL     1     -12.397   9.600  71.898  1.00  0.00    -0.437 C  
HETATM    3  C   UNL     1     -11.722   8.798  70.743  1.00  0.00    -0.219 C  
HETATM    4  C   UNL     1     -12.915  10.977  71.475  1.00  0.00    -0.553 C  
ENDROOT
BRANCH   3   5
HETATM    5  N   UNL     1     -11.152   7.520  71.230  1.00  0.00    -0.243 N  
HETATM    6  H   UNL     1     -11.090   4.346  70.562  1.00  0.00     0.000 HD 
HETATM    7  O   UNL     1     -11.661   6.362  69.306  1.00  0.00    -0.354 OA 
HETATM    8  C   UNL     1     -10.344   7.485  72.442  1.00  0.00    -0.228 C  
HETATM    9  C   UNL     1     -11.273   6.376  70.470  1.00  0.00    -0.352 C  
HETATM   10  C   UNL     1     -10.782   6.310  73.296  1.00  0.00    -0.284 C  
HETATM   11  N   UNL     1     -10.990   5.202  71.108  1.00  0.00     0.010 N  
HETATM   12  C   UNL     1     -10.561   5.052  72.483  1.00  0.00    -0.219 C  
ENDBRANCH   3   5
BRANCH   3  13
HETATM   13  C   UNL     1     -10.684   9.663  69.964  1.00  0.00    -0.259 C  
HETATM   14  O   UNL     1      -9.561   9.916  70.387  1.00  0.00    -0.218 OA 
HETATM   15  N   UNL     1     -11.156  10.206  68.787  1.00  0.00    -0.351 N  
HETATM   16  H   UNL     1     -12.095   9.927  68.502  1.00  0.00     0.000 HD 
BRANCH  15  17
HETATM   17  C   UNL     1     -10.459  11.138  67.902  1.00  0.00    -0.190 C  
BRANCH  17  18
HETATM   18  C   UNL     1     -10.188  12.519  68.539  1.00  0.00    -0.210 C  
BRANCH  18  19
HETATM   19  C   UNL     1     -11.296  13.390  69.185  1.00  0.00    -0.280 C  
HETATM   20  O   UNL     1     -12.534  12.674  69.159  1.00  0.00     0.060 OA 
HETATM   21  H   UNL     1     -13.214  13.208  69.555  1.00  0.00     0.000 HD 
BRANCH  19  22
HETATM   22  C   UNL     1     -11.501  14.732  68.379  1.00  0.00    -0.314 C  
BRANCH  22  23
HETATM   23  N   UNL     1     -12.277  14.558  67.098  1.00  0.00    -0.558 N  
HETATM   24  C   UNL     1     -12.031  14.571  65.741  1.00  0.00    -0.306 C  
HETATM   25  H   UNL     1     -13.263  14.381  67.289  1.00  0.00     0.000 HD 
HETATM   26  O   UNL     1     -12.900  14.124  64.988  1.00  0.00    -0.687 OA 
BRANCH  24  27
HETATM   27  C   UNL     1     -10.761  15.235  65.183  1.00  0.00    -0.436 C  
BRANCH  27  28
HETATM   28  O   UNL     1     -10.513  16.629  65.271  1.00  0.00    -0.612 OA 
BRANCH  28  29
HETATM   29  C   UNL     1      -9.593  17.081  66.207  1.00  0.00    -0.267 A  
HETATM   30  C   UNL     1      -8.302  14.851  66.833  1.00  0.00    -0.212 C  
HETATM   31  C   UNL     1      -8.588  16.332  66.872  1.00  0.00    -0.247 A  
HETATM   32  C   UNL     1      -7.665  17.016  67.700  1.00  0.00    -0.183 A  
HETATM   33  C   UNL     1      -7.719  18.386  67.902  1.00  0.00    -0.261 A  
HETATM   34  C   UNL     1      -8.721  19.116  67.289  1.00  0.00    -0.310 A  
HETATM   35  C   UNL     1      -9.666  18.486  66.455  1.00  0.00    -0.347 A  
HETATM   36  C   UNL     1     -10.737  19.367  65.860  1.00  0.00    -0.501 C  
ENDBRANCH  28  29
ENDBRANCH  27  28
ENDBRANCH  24  27
ENDBRANCH  22  23
BRANCH  22  37
HETATM   37  C   UNL     1     -11.873  15.933  69.289  1.00  0.00    -0.328 C  
BRANCH  37  38
HETATM   38  C   UNL     1     -12.340  15.545  70.664  1.00  0.00    -0.462 A  
HETATM   39  C   UNL     1     -13.280  15.068  73.259  1.00  0.00    -0.537 A  
HETATM   40  C   UNL     1     -11.467  15.603  71.754  1.00  0.00    -0.505 A  
HETATM   41  C   UNL     1     -14.136  14.938  72.173  1.00  0.00    -0.616 A  
HETATM   42  C   UNL     1     -13.653  15.128  70.882  1.00  0.00    -0.397 A  
HETATM   43  C   UNL     1     -11.936  15.365  73.044  1.00  0.00    -0.557 A  
ENDBRANCH  37  38
ENDBRANCH  22  37
ENDBRANCH  19  22
ENDBRANCH  18  19
ENDBRANCH  17  18
BRANCH  17  44
HETATM   44  C   UNL     1     -10.945  11.097  66.437  1.00  0.00    -0.248 C  
BRANCH  44  45
HETATM   45  C   UNL     1     -10.054  10.278  65.523  1.00  0.00    -0.351 A  
HETATM   46  C   UNL     1      -9.438   9.097  65.969  1.00  0.00    -0.321 A  
HETATM   47  C   UNL     1      -9.806  10.707  64.214  1.00  0.00    -0.391 A  
HETATM   48  C   UNL     1      -8.565   8.389  65.135  1.00  0.00    -0.159 A  
HETATM   49  C   UNL     1      -8.938   9.996  63.381  1.00  0.00    -0.277 A  
HETATM   50  C   UNL     1      -8.310   8.843  63.843  1.00  0.00    -0.162 A  
ENDBRANCH  44  45
ENDBRANCH  17  44
ENDBRANCH  15  17
ENDBRANCH   3  13
TORSDOF 14
ENDMDL
