MODEL       34
REMARK 921   NORMALIZED FREE ENERGY PREDICTED BY IDOCK:   -5.49 KCAL/MOL
REMARK 922        TOTAL FREE ENERGY PREDICTED BY IDOCK:   -9.57 KCAL/MOL
REMARK 923 INTER-LIGAND FREE ENERGY PREDICTED BY IDOCK:   -8.67 KCAL/MOL
REMARK 924 INTRA-LIGAND FREE ENERGY PREDICTED BY IDOCK:   -0.90 KCAL/MOL
REMARK 927      BINDING AFFINITY PREDICTED BY RF-SCORE:    0.00 PKD
ROOT
HETATM    1  C   UNL     1     -10.861   5.577  73.520  1.00  0.00    -0.276 C  
HETATM    2  O   UNL     1     -11.884   5.666  72.530  1.00  0.00    -0.282 OA 
ENDROOT
BRANCH   2   3
HETATM    3  C   UNL     1     -11.729   6.658  71.593  1.00  0.00    -0.316 A  
HETATM    4  C   UNL     1     -12.241   7.945  71.809  1.00  0.00    -0.344 A  
HETATM    5  C   UNL     1     -11.998   8.977  70.901  1.00  0.00    -0.274 A  
HETATM    6  C   UNL     1     -11.267   8.712  69.749  1.00  0.00     0.008 A  
HETATM    7  C   UNL     1     -11.026   6.368  70.400  1.00  0.00    -0.308 A  
HETATM    8  C   UNL     1     -10.782   7.417  69.484  1.00  0.00    -0.224 A  
BRANCH   5   9
HETATM    9  C   UNL     1     -12.463  10.344  71.264  1.00  0.00    -0.415 C  
HETATM   10  N   UNL     1     -11.878  11.398  70.605  1.00  0.00    -0.440 N  
HETATM   11  O   UNL     1     -13.346  10.482  72.105  1.00  0.00    -0.437 OA 
HETATM   12  H   UNL     1     -11.142  11.227  69.919  1.00  0.00     0.000 HD 
BRANCH  10  13
HETATM   13  C   UNL     1     -12.308  12.749  70.887  1.00  0.00    -0.265 C  
BRANCH  13  14
HETATM   14  C   UNL     1     -11.789  13.702  69.848  1.00  0.00    -0.389 A  
HETATM   15  C   UNL     1     -12.201  15.033  69.879  1.00  0.00    -0.351 A  
HETATM   16  C   UNL     1     -11.783  15.926  68.897  1.00  0.00    -0.376 A  
HETATM   17  C   UNL     1     -10.949  15.511  67.852  1.00  0.00    -0.316 A  
HETATM   18  C   UNL     1     -10.519  14.184  67.823  1.00  0.00    -0.246 A  
HETATM   19  C   UNL     1     -10.938  13.281  68.811  1.00  0.00    -0.294 A  
BRANCH  17  20
HETATM   20  O   UNL     1     -10.521  16.324  66.823  1.00  0.00    -0.296 OA 
BRANCH  20  21
HETATM   21  C   UNL     1     -10.184  15.600  65.634  1.00  0.00    -0.375 C  
BRANCH  21  22
HETATM   22  C   UNL     1     -11.286  15.614  64.566  1.00  0.00    -0.325 C  
BRANCH  22  23
HETATM   23  N   UNL     1     -11.757  14.244  64.253  1.00  0.00    -0.364 NA 
HETATM   24  C   UNL     1     -10.664  13.268  64.212  1.00  0.00    -0.387 C  
HETATM   25  C   UNL     1     -12.767  13.810  65.216  1.00  0.00    -0.439 C  
ENDBRANCH  22  23
ENDBRANCH  21  22
ENDBRANCH  20  21
ENDBRANCH  17  20
ENDBRANCH  13  14
ENDBRANCH  10  13
ENDBRANCH   5   9
BRANCH   8  26
HETATM   26  O   UNL     1     -10.085   7.379  68.302  1.00  0.00    -0.165 OA 
HETATM   27  C   UNL     1     -10.752   7.009  67.105  1.00  0.00    -0.363 C  
ENDBRANCH   8  26
BRANCH   7  28
HETATM   28  O   UNL     1     -10.474   5.145  70.109  1.00  0.00    -0.286 OA 
HETATM   29  C   UNL     1      -9.064   4.991  70.191  1.00  0.00    -0.120 C  
ENDBRANCH   7  28
ENDBRANCH   2   3
TORSDOF 10
ENDMDL
