MODEL      287
REMARK 921   NORMALIZED FREE ENERGY PREDICTED BY IDOCK:    1.04 KCAL/MOL
REMARK 922        TOTAL FREE ENERGY PREDICTED BY IDOCK:    0.90 KCAL/MOL
REMARK 923 INTER-LIGAND FREE ENERGY PREDICTED BY IDOCK:   -1.24 KCAL/MOL
REMARK 924 INTRA-LIGAND FREE ENERGY PREDICTED BY IDOCK:    2.14 KCAL/MOL
REMARK 927      BINDING AFFINITY PREDICTED BY RF-SCORE:    0.00 PKD
ROOT
HETATM    1  C   UNL     1      -9.854  15.567  68.747  1.00  0.00    -0.217 C  
HETATM    2  C   UNL     1     -10.803  16.350  67.865  1.00  0.00    -0.328 C  
ENDROOT
BRANCH   2   3
HETATM    3  S   UNL     1     -11.562  15.312  66.627  1.00  0.00     0.072 S  
HETATM    4  O   UNL     1     -12.979  15.587  66.591  1.00  0.00     1.951 OA 
HETATM    5  O   UNL     1     -10.742  15.335  65.435  1.00  0.00    -0.337 OA 
BRANCH   3   6
HETATM    6  N   UNL     1     -11.355  13.809  67.363  1.00  0.00    -0.309 N  
HETATM    7  C   UNL     1     -11.221  13.563  68.829  1.00  0.00    -0.274 C  
HETATM    8  C   UNL     1     -11.711  12.091  68.620  1.00  0.00    -0.326 C  
HETATM    9  C   UNL     1     -12.277  12.640  67.271  1.00  0.00     0.096 C  
BRANCH   8  10
HETATM   10  C   UNL     1     -12.664  11.519  69.660  1.00  0.00     0.225 C  
BRANCH  10  11
HETATM   11  C   UNL     1     -12.352  10.064  69.972  1.00  0.00     0.083 C  
HETATM   12  H1  UNL     1     -11.884   7.881  70.438  1.00  0.00     0.000 HD 
HETATM   13  N   UNL     1     -12.093   8.857  70.230  1.00  0.00    -0.391 NA 
HETATM   14  H2  UNL     1     -11.149   8.544  70.001  1.00  0.00     0.000 HD 
ENDBRANCH  10  11
ENDBRANCH   8  10
BRANCH   8  15
HETATM   15  N   UNL     1     -10.550  11.225  68.464  1.00  0.00    -0.190 NA 
HETATM   16  N   UNL     1     -10.109  10.887  67.232  1.00  0.00    -0.185 NA 
HETATM   17  C   UNL     1      -9.820  10.633  69.460  1.00  0.00    -0.084 A  
HETATM   18  C   UNL     1      -9.086  10.064  67.468  1.00  0.00    -0.134 A  
HETATM   19  C   UNL     1      -8.863   9.859  68.841  1.00  0.00    -0.145 A  
BRANCH  19  20
HETATM   20  C   UNL     1      -7.871   9.083  69.537  1.00  0.00    -0.094 A  
HETATM   21  C   UNL     1      -7.865   7.688  69.485  1.00  0.00    -0.115 A  
HETATM   22  C   UNL     1      -8.672   6.647  68.944  1.00  0.00    -0.128 A  
HETATM   23  C   UNL     1      -8.063   5.447  69.244  1.00  0.00    -0.093 A  
HETATM   24  N   UNL     1      -6.930   5.721  69.966  1.00  0.00    -0.063 NA 
HETATM   25  H   UNL     1      -6.277   5.022  70.322  1.00  0.00     0.000 HD 
HETATM   26  C   UNL     1      -6.808   7.073  70.135  1.00  0.00    -0.060 A  
HETATM   27  N   UNL     1      -5.817   7.670  70.814  1.00  0.00    -0.030 NA 
HETATM   28  C   UNL     1      -5.952   9.008  70.818  1.00  0.00    -0.041 A  
HETATM   29  N   UNL     1      -6.913   9.744  70.231  1.00  0.00    -0.119 NA 
ENDBRANCH  19  20
ENDBRANCH   8  15
ENDBRANCH   3   6
ENDBRANCH   2   3
TORSDOF 6
ENDMDL
