MODEL      160
REMARK 921   NORMALIZED FREE ENERGY PREDICTED BY IDOCK:    3.94 KCAL/MOL
REMARK 922        TOTAL FREE ENERGY PREDICTED BY IDOCK:    3.83 KCAL/MOL
REMARK 923 INTER-LIGAND FREE ENERGY PREDICTED BY IDOCK:    2.99 KCAL/MOL
REMARK 924 INTRA-LIGAND FREE ENERGY PREDICTED BY IDOCK:    0.83 KCAL/MOL
REMARK 927      BINDING AFFINITY PREDICTED BY RF-SCORE:    0.00 PKD
ROOT
HETATM    1  O   UNL     1      -5.147  12.359  67.170  1.00  0.00    -0.245 OA 
HETATM    2  F   UNL     2      -8.551  12.033  66.089  1.00  0.00    -0.152 F  
HETATM    3  C   UNL     1      -5.585  13.276  67.856  1.00  0.00    -0.125 C  
HETATM    4  C   UNL     2      -9.044  13.119  66.710  1.00  0.00    -0.209 C  
HETATM    5  N   UNL     1      -5.927  14.483  67.301  1.00  0.00     0.312 N  
HETATM    6  H   UNL     1      -5.804  14.604  66.295  1.00  0.00     0.000 HD 
HETATM    7  C   UNL     1      -6.424  15.531  68.021  1.00  0.00    -0.135 C  
HETATM    8  C   UNL     2      -9.317  14.249  66.062  1.00  0.00    -0.109 C  
HETATM    9  C   UNL     1      -6.630  15.423  69.332  1.00  0.00    -0.155 C  
HETATM   10  N   UNL     2      -9.742  15.390  66.722  1.00  0.00    -0.232 N  
HETATM   11  O   UNL     2      -8.815  12.117  68.846  1.00  0.00     0.048 OA 
HETATM   12  C   UNL     1      -6.311  14.149  70.002  1.00  0.00    -0.135 C  
HETATM   13  C   UNL     2      -9.927  15.401  68.102  1.00  0.00    -0.221 C  
HETATM   14  O   UNL     1      -6.541  13.997  71.197  1.00  0.00     0.138 OA 
HETATM   15  N   UNL     1      -5.771  13.177  69.204  1.00  0.00    -0.073 N  
HETATM   16  H   UNL     1      -5.483  12.307  69.655  1.00  0.00     0.000 HD 
HETATM   17  O   UNL     2     -10.173  16.410  68.757  1.00  0.00    -0.230 OA 
HETATM   18  N   UNL     2      -9.756  14.189  68.733  1.00  0.00    -0.349 N  
HETATM   19  C   UNL     2      -9.202  13.066  68.173  1.00  0.00    -0.212 C  
HETATM   20  H   UNL     2     -10.067  14.121  69.702  1.00  0.00     0.000 HD 
ENDROOT
BRANCH  10  21
HETATM   21  C   UNL     2      -9.964  16.627  65.975  1.00  0.00    -0.324 C  
HETATM   22  C   UNL     2     -11.766  17.728  64.867  1.00  0.00     2.899 C  
HETATM   23  C   UNL     2     -10.934  16.471  64.802  1.00  0.00    -0.192 C  
HETATM   24  C   UNL     2     -11.791  18.025  66.347  1.00  0.00     3.023 C  
HETATM   25  O   UNL     2     -10.522  17.613  66.860  1.00  0.00    -0.329 OA 
ENDBRANCH  10  21
TORSDOF 1
ENDMDL
