MODEL      167
REMARK 921   NORMALIZED FREE ENERGY PREDICTED BY IDOCK:    9.62 KCAL/MOL
REMARK 922        TOTAL FREE ENERGY PREDICTED BY IDOCK:    9.80 KCAL/MOL
REMARK 923 INTER-LIGAND FREE ENERGY PREDICTED BY IDOCK:   10.13 KCAL/MOL
REMARK 924 INTRA-LIGAND FREE ENERGY PREDICTED BY IDOCK:   -0.32 KCAL/MOL
REMARK 927      BINDING AFFINITY PREDICTED BY RF-SCORE:    0.00 PKD
ROOT
HETATM    1  C   UNL     1      -5.346  20.996  65.903  1.00  0.00    -0.214 C  
HETATM    2  N   UNL     1      -6.777  20.828  65.661  1.00  0.00    -0.165 NA 
HETATM    3  C   UNL     1      -7.052  19.692  64.756  1.00  0.00     0.509 C  
HETATM    4  C   UNL     1      -6.834  18.291  65.367  1.00  0.00    -0.036 C  
HETATM    5  N   UNL     1      -7.550  18.142  66.642  1.00  0.00    -0.219 NA 
HETATM    6  C   UNL     1      -7.534  20.622  66.918  1.00  0.00    -0.258 C  
HETATM    7  C   UNL     1      -7.349  19.244  67.592  1.00  0.00    -0.236 C  
ENDROOT
BRANCH   5   8
HETATM    8  C   UNL     1      -8.401  17.068  66.923  1.00  0.00    -0.218 C  
HETATM    9  N   UNL     1      -7.883  15.946  67.350  1.00  0.00    -0.153 NA 
HETATM   10  C   UNL     1      -8.634  14.808  67.700  1.00  0.00    -0.174 A  
HETATM   11  H   UNL     1      -6.868  15.893  67.436  1.00  0.00     0.000 HD 
HETATM   12  C   UNL     1      -8.081  13.565  67.363  1.00  0.00    -0.184 A  
HETATM   13  C   UNL     1      -8.725  12.378  67.713  1.00  0.00    -0.176 A  
HETATM   14  C   UNL     1      -9.918  12.404  68.429  1.00  0.00    -0.210 A  
HETATM   15 CL   UNL     1      -8.052  10.865  67.247  1.00  0.00    -0.120 Cl 
HETATM   16  C   UNL     1     -10.466  13.630  68.803  1.00  0.00    -0.214 A  
HETATM   17  C   UNL     1      -9.835  14.835  68.446  1.00  0.00    -0.220 A  
HETATM   18  N   UNL     1     -10.516  16.053  68.712  1.00  0.00    -0.235 NA 
HETATM   19  C   UNL     1     -10.833  16.892  67.623  1.00  0.00    -0.244 A  
HETATM   20  H   UNL     1     -10.769  16.314  69.665  1.00  0.00     0.000 HD 
HETATM   21  C   UNL     1     -12.176  17.229  67.390  1.00  0.00     2.938 A  
HETATM   22  C   UNL     1     -12.553  17.905  66.227  1.00  0.00     7.524 A  
HETATM   23  C   UNL     1     -11.597  18.244  65.275  1.00  0.00     2.554 A  
HETATM   24  C   UNL     1     -10.259  17.928  65.499  1.00  0.00     0.179 A  
HETATM   25  C   UNL     1      -9.871  17.274  66.680  1.00  0.00    -0.299 A  
ENDBRANCH   5   8
TORSDOF 1
ENDMDL
