MODEL       17
REMARK 921   NORMALIZED FREE ENERGY PREDICTED BY IDOCK:   -5.94 KCAL/MOL
REMARK 922        TOTAL FREE ENERGY PREDICTED BY IDOCK:  -11.51 KCAL/MOL
REMARK 923 INTER-LIGAND FREE ENERGY PREDICTED BY IDOCK:  -10.45 KCAL/MOL
REMARK 924 INTRA-LIGAND FREE ENERGY PREDICTED BY IDOCK:   -1.06 KCAL/MOL
REMARK 927      BINDING AFFINITY PREDICTED BY RF-SCORE:    0.00 PKD
ROOT
HETATM    1  N   UNL     1     -10.446   5.573  69.272  1.00  0.00    -0.267 NA 
HETATM    2  C   UNL     1     -10.718   6.086  70.483  1.00  0.00    -0.284 A  
HETATM    3  H1  UNL     1      -9.979   4.675  69.142  1.00  0.00     0.000 HD 
HETATM    4  H2  UNL     1     -10.718   6.104  68.446  1.00  0.00     0.000 HD 
HETATM    5  N   UNL     1     -11.317   7.238  70.651  1.00  0.00    -0.277 NA 
HETATM    6  C   UNL     1     -11.468   7.507  72.007  1.00  0.00    -0.279 A  
HETATM    7  S   UNL     1     -10.321   5.242  71.922  1.00  0.00    -0.216 SA 
HETATM    8  C   UNL     1     -10.984   6.523  72.847  1.00  0.00    -0.250 A  
ENDROOT
BRANCH   6   9
HETATM    9  C   UNL     1     -12.135   8.774  72.418  1.00  0.00    -0.379 C  
BRANCH   9  10
HETATM   10  C   UNL     1     -12.427   9.728  71.272  1.00  0.00    -0.367 C  
HETATM   11  N   UNL     1     -11.322  10.149  70.547  1.00  0.00    -0.316 N  
HETATM   12  O   UNL     1     -13.601   9.976  70.996  1.00  0.00    -0.317 OA 
HETATM   13  H   UNL     1     -10.406   9.853  70.883  1.00  0.00     0.000 HD 
BRANCH  11  14
HETATM   14  C   UNL     1     -11.351  10.949  69.386  1.00  0.00    -0.280 A  
HETATM   15  C   UNL     1     -11.625  12.316  69.414  1.00  0.00    -0.378 A  
HETATM   16  C   UNL     1     -11.758  13.044  68.231  1.00  0.00    -0.390 A  
HETATM   17  C   UNL     1     -11.605  12.422  66.989  1.00  0.00    -0.434 A  
HETATM   18  C   UNL     1     -11.127  10.335  68.149  1.00  0.00    -0.324 A  
HETATM   19  C   UNL     1     -11.267  11.063  66.959  1.00  0.00    -0.255 A  
BRANCH  17  20
HETATM   20  C   UNL     1     -11.852  13.194  65.710  1.00  0.00    -0.442 C  
BRANCH  20  21
HETATM   21  C   UNL     1     -10.690  13.165  64.701  1.00  0.00    -0.380 C  
BRANCH  21  22
HETATM   22  N   UNL     1     -10.221  14.514  64.397  1.00  0.00    -0.519 NA 
HETATM   23  H   UNL     1     -10.863  14.994  63.767  1.00  0.00     0.000 HD 
BRANCH  22  24
HETATM   24  C   UNL     1      -9.977  15.308  65.608  1.00  0.00    -0.364 C  
BRANCH  24  25
HETATM   25  C   UNL     1     -10.906  16.543  65.722  1.00  0.00    -0.134 C  
HETATM   26  O   UNL     1     -11.093  17.128  64.423  1.00  0.00    -1.100 OA 
HETATM   27  H   UNL     1     -11.663  17.885  64.493  1.00  0.00     0.000 HD 
BRANCH  25  28
HETATM   28  C   UNL     1     -10.469  17.609  66.710  1.00  0.00    -0.289 A  
HETATM   29  C   UNL     1     -10.278  17.284  68.062  1.00  0.00    -0.332 A  
HETATM   30  C   UNL     1      -9.948  18.273  68.993  1.00  0.00    -0.293 A  
HETATM   31  C   UNL     1      -9.799  19.596  68.585  1.00  0.00    -0.519 A  
HETATM   32  C   UNL     1      -9.961  19.931  67.244  1.00  0.00    -0.556 A  
HETATM   33  C   UNL     1     -10.294  18.945  66.314  1.00  0.00    -0.512 A  
ENDBRANCH  25  28
ENDBRANCH  24  25
ENDBRANCH  22  24
ENDBRANCH  21  22
ENDBRANCH  20  21
ENDBRANCH  17  20
ENDBRANCH  11  14
ENDBRANCH   9  10
ENDBRANCH   6   9
TORSDOF 9
ENDMDL
