MODEL      403
REMARK 921   NORMALIZED FREE ENERGY PREDICTED BY IDOCK:   -1.83 KCAL/MOL
REMARK 922        TOTAL FREE ENERGY PREDICTED BY IDOCK:   -6.49 KCAL/MOL
REMARK 923 INTER-LIGAND FREE ENERGY PREDICTED BY IDOCK:   -6.29 KCAL/MOL
REMARK 924 INTRA-LIGAND FREE ENERGY PREDICTED BY IDOCK:   -0.20 KCAL/MOL
REMARK 927      BINDING AFFINITY PREDICTED BY RF-SCORE:    0.00 PKD
ROOT
HETATM    1  C   UNL     1      -7.941  20.153  67.426  1.00  0.00    -0.357 C  
HETATM    2  C   UNL     1      -8.611  18.801  67.602  1.00  0.00    -0.293 C  
ENDROOT
BRANCH   2   3
HETATM    3  C   UNL     1      -9.816  18.662  66.675  1.00  0.00    -0.377 C  
BRANCH   3   4
HETATM    4  C   UNL     1     -10.813  17.645  67.224  1.00  0.00    -0.141 C  
BRANCH   4   5
HETATM    5  C   UNL     1     -11.182  16.628  66.152  1.00  0.00     0.452 C  
BRANCH   5   6
HETATM    6  C   UNL     1     -11.582  15.299  66.781  1.00  0.00    -0.051 C  
BRANCH   6   7
HETATM    7  C   UNL     1     -11.974  14.300  65.701  1.00  0.00    -0.390 C  
BRANCH   7   8
HETATM    8  C   UNL     1     -10.743  13.819  64.947  1.00  0.00    -0.410 C  
BRANCH   8   9
HETATM    9  C   UNL     1     -10.715  12.296  64.900  1.00  0.00    -0.335 C  
BRANCH   9  10
HETATM   10  C   UNL     1      -9.921  11.825  63.692  1.00  0.00    -0.404 C  
BRANCH  10  11
HETATM   11  C   UNL     1      -9.598  10.345  63.803  1.00  0.00    -0.366 C  
BRANCH  11  12
HETATM   12  C   UNL     1      -8.157  10.099  63.390  1.00  0.00    -0.161 C  
BRANCH  12  13
HETATM   13  C   UNL     1      -7.433   9.207  64.392  1.00  0.00    -0.101 C  
BRANCH  13  14
HETATM   14  C   UNL     1      -7.939   9.409  65.820  1.00  0.00    -0.110 C  
BRANCH  14  15
HETATM   15  C   UNL     1      -9.055   8.452  66.249  1.00  0.00    -0.241 C  
BRANCH  15  16
HETATM   16  C   UNL     1      -8.865   7.905  67.666  1.00  0.00    -0.128 C  
BRANCH  16  17
HETATM   17  N   UNL     1      -9.685   8.652  68.733  1.00  0.00    -0.163 N  
HETATM   18  C   UNL     1     -10.690   7.716  69.394  1.00  0.00    -0.184 C  
HETATM   19  C   UNL     1      -8.762   9.238  69.800  1.00  0.00    -0.162 C  
BRANCH  17  20
HETATM   20  C   UNL     1     -10.437   9.820  68.003  1.00  0.00    -0.226 C  
BRANCH  20  21
HETATM   21  C   UNL     1     -11.296  10.670  68.906  1.00  0.00    -0.337 A  
HETATM   22  C   UNL     1     -11.333  12.065  68.749  1.00  0.00    -0.331 A  
HETATM   23  C   UNL     1     -11.899  12.868  69.739  1.00  0.00    -0.380 A  
HETATM   24  C   UNL     1     -12.464  12.285  70.871  1.00  0.00    -0.371 A  
HETATM   25  C   UNL     1     -12.516  10.899  70.990  1.00  0.00    -0.514 A  
HETATM   26  C   UNL     1     -11.958  10.092  70.000  1.00  0.00    -0.210 A  
ENDBRANCH  20  21
ENDBRANCH  17  20
ENDBRANCH  16  17
ENDBRANCH  15  16
ENDBRANCH  14  15
ENDBRANCH  13  14
ENDBRANCH  12  13
ENDBRANCH  11  12
ENDBRANCH  10  11
ENDBRANCH   9  10
ENDBRANCH   8   9
ENDBRANCH   7   8
ENDBRANCH   6   7
ENDBRANCH   5   6
ENDBRANCH   4   5
ENDBRANCH   3   4
ENDBRANCH   2   3
TORSDOF 17
ENDMDL
