MODEL      185
REMARK 921   NORMALIZED FREE ENERGY PREDICTED BY IDOCK:   -1.39 KCAL/MOL
REMARK 922        TOTAL FREE ENERGY PREDICTED BY IDOCK:   -1.87 KCAL/MOL
REMARK 923 INTER-LIGAND FREE ENERGY PREDICTED BY IDOCK:   -1.54 KCAL/MOL
REMARK 924 INTRA-LIGAND FREE ENERGY PREDICTED BY IDOCK:   -0.33 KCAL/MOL
REMARK 927      BINDING AFFINITY PREDICTED BY RF-SCORE:    0.00 PKD
ROOT
HETATM    1  O   UNL     1     -12.092  16.848  67.305  1.00  0.00     1.397 OA 
HETATM    2  H   UNL     1     -11.694  17.694  67.142  1.00  0.00     0.000 HD 
HETATM    3  C   UNL     1     -11.398  15.688  67.119  1.00  0.00    -0.082 A  
HETATM    4  C   UNL     1     -11.980  14.449  67.358  1.00  0.00    -0.407 A  
HETATM    5  C   UNL     1     -11.220  13.288  67.184  1.00  0.00    -0.327 A  
HETATM    6  C   UNL     1      -9.883  13.359  66.764  1.00  0.00    -0.265 A  
HETATM    7  C   UNL     1     -10.079  15.782  66.697  1.00  0.00    -0.287 A  
HETATM    8  C   UNL     1      -9.320  14.620  66.524  1.00  0.00    -0.313 A  
ENDROOT
BRANCH   6   9
HETATM    9  C   UNL     1      -9.098  12.115  66.689  1.00  0.00    -0.206 C  
HETATM   10  C   UNL     1      -9.619  10.878  66.693  1.00  0.00    -0.213 C  
BRANCH  10  11
HETATM   11  C   UNL     1      -8.828   9.641  66.561  1.00  0.00    -0.158 A  
HETATM   12  C   UNL     1      -7.894   9.439  65.533  1.00  0.00    -0.103 A  
HETATM   13  C   UNL     1      -7.170   8.248  65.472  1.00  0.00    -0.071 A  
HETATM   14  C   UNL     1      -7.341   7.251  66.423  1.00  0.00    -0.080 A  
HETATM   15  O   UNL     1      -6.264   8.019  64.477  1.00  0.00    -0.052 OA 
HETATM   16  H   UNL     1      -5.772   7.208  64.435  1.00  0.00     0.000 HD 
HETATM   17  C   UNL     1      -8.251   7.459  67.452  1.00  0.00    -0.113 A  
HETATM   18  O   UNL     1      -8.456   6.517  68.418  1.00  0.00    -0.120 OA 
HETATM   19  C   UNL     1      -8.986   8.640  67.530  1.00  0.00    -0.143 A  
HETATM   20  H   UNL     1      -9.078   6.660  69.121  1.00  0.00     0.000 HD 
ENDBRANCH  10  11
ENDBRANCH   6   9
TORSDOF 2
ENDMDL
