MODEL      199
REMARK 921   NORMALIZED FREE ENERGY PREDICTED BY IDOCK:   -2.88 KCAL/MOL
REMARK 922        TOTAL FREE ENERGY PREDICTED BY IDOCK:   -3.88 KCAL/MOL
REMARK 923 INTER-LIGAND FREE ENERGY PREDICTED BY IDOCK:   -3.49 KCAL/MOL
REMARK 924 INTRA-LIGAND FREE ENERGY PREDICTED BY IDOCK:   -0.40 KCAL/MOL
REMARK 927      BINDING AFFINITY PREDICTED BY RF-SCORE:    0.00 PKD
ROOT
HETATM    1  C   UNL     1     -10.115  16.232  66.300  1.00  0.00    -0.340 C  
HETATM    2  C   UNL     1     -10.912  15.355  67.254  1.00  0.00    -0.317 C  
ENDROOT
BRANCH   2   3
HETATM    3  C   UNL     1     -12.127  14.727  66.571  1.00  0.00    -0.121 C  
BRANCH   3   4
HETATM    4  C   UNL     1     -11.967  13.207  66.461  1.00  0.00    -0.459 C  
BRANCH   4   5
HETATM    5  C   UNL     1     -11.065  12.768  65.299  1.00  0.00    -0.320 C  
BRANCH   5   6
HETATM    6  C   UNL     1     -10.309  11.485  65.560  1.00  0.00    -0.322 A  
HETATM    7  C   UNL     1     -10.027  11.097  66.879  1.00  0.00    -0.230 A  
HETATM    8  C   UNL     1      -9.269   9.954  67.145  1.00  0.00    -0.158 A  
HETATM    9  C   UNL     1      -8.792   9.163  66.096  1.00  0.00    -0.187 A  
HETATM   10  C   UNL     1      -7.938   7.960  66.366  1.00  0.00    -0.102 C  
HETATM   11  C   UNL     1      -9.110   9.515  64.779  1.00  0.00    -0.271 A  
HETATM   12  C   UNL     1      -9.858  10.666  64.520  1.00  0.00    -0.327 A  
HETATM   13  O   UNL     1     -10.145  11.011  63.229  1.00  0.00    -0.333 OA 
HETATM   14  H   UNL     1      -9.839  10.454  62.523  1.00  0.00     0.000 HD 
ENDBRANCH   5   6
ENDBRANCH   4   5
ENDBRANCH   3   4
ENDBRANCH   2   3
TORSDOF 4
ENDMDL
