MODEL      118
REMARK 921   NORMALIZED FREE ENERGY PREDICTED BY IDOCK:   -4.19 KCAL/MOL
REMARK 922        TOTAL FREE ENERGY PREDICTED BY IDOCK:   -6.13 KCAL/MOL
REMARK 923 INTER-LIGAND FREE ENERGY PREDICTED BY IDOCK:   -5.40 KCAL/MOL
REMARK 924 INTRA-LIGAND FREE ENERGY PREDICTED BY IDOCK:   -0.73 KCAL/MOL
REMARK 927      BINDING AFFINITY PREDICTED BY RF-SCORE:    0.00 PKD
ROOT
HETATM    1  C   UNL     1     -10.111  17.952  67.144  1.00  0.00    -0.340 C  
HETATM    2  O   UNL     1     -10.392  17.504  65.825  1.00  0.00    -0.560 OA 
ENDROOT
BRANCH   2   3
HETATM    3  C   UNL     1     -10.900  16.242  65.689  1.00  0.00    -0.208 A  
HETATM    4  C   UNL     1     -11.251  15.631  66.889  1.00  0.00    -0.106 A  
HETATM    5  C   UNL     1     -11.824  14.350  66.928  1.00  0.00    -0.410 A  
HETATM    6  C   UNL     1     -12.196  12.223  63.337  1.00  0.00    -0.630 A  
HETATM    7  C   UNL     1     -11.983  13.621  65.723  1.00  0.00    -0.395 A  
HETATM    8  C   UNL     1     -11.731  13.528  63.311  1.00  0.00     0.061 A  
HETATM    9  C   UNL     1     -11.090  15.556  64.497  1.00  0.00    -0.290 A  
HETATM   10  N   UNL     1     -12.463  12.355  65.734  1.00  0.00    -0.513 NA 
HETATM   11  C   UNL     1     -12.544  11.687  64.560  1.00  0.00     0.469 A  
HETATM   12  C   UNL     1     -11.599  14.247  64.511  1.00  0.00    -0.397 A  
BRANCH   5  13
HETATM   13  N   UNL     1     -12.310  13.814  68.144  1.00  0.00    -0.395 NA 
HETATM   14  H   UNL     1     -13.315  13.715  68.289  1.00  0.00     0.000 HD 
BRANCH  13  15
HETATM   15  C   UNL     1     -11.377  13.401  69.196  1.00  0.00    -0.280 C  
HETATM   16  C   UNL     1     -11.937  13.841  70.553  1.00  0.00    -0.367 C  
BRANCH  15  17
HETATM   17  C   UNL     1     -11.217  11.866  69.198  1.00  0.00    -0.314 C  
BRANCH  17  18
HETATM   18  C   UNL     1     -10.220  11.313  68.169  1.00  0.00    -0.196 C  
BRANCH  18  19
HETATM   19  C   UNL     1      -8.999  12.192  67.896  1.00  0.00    -0.184 C  
HETATM   20  H1  UNL     1      -7.233  12.762  68.820  1.00  0.00     0.000 HD 
HETATM   21  N   UNL     1      -8.047  12.175  69.002  1.00  0.00    -0.346 NA 
HETATM   22  H2  UNL     1      -7.770  11.222  69.235  1.00  0.00     0.000 HD 
ENDBRANCH  18  19
ENDBRANCH  17  18
ENDBRANCH  15  17
ENDBRANCH  13  15
ENDBRANCH   5  13
ENDBRANCH   2   3
TORSDOF 6
ENDMDL
