MODEL       21
REMARK 921   NORMALIZED FREE ENERGY PREDICTED BY IDOCK:   -6.27 KCAL/MOL
REMARK 922        TOTAL FREE ENERGY PREDICTED BY IDOCK:   -9.44 KCAL/MOL
REMARK 923 INTER-LIGAND FREE ENERGY PREDICTED BY IDOCK:   -9.12 KCAL/MOL
REMARK 924 INTRA-LIGAND FREE ENERGY PREDICTED BY IDOCK:   -0.32 KCAL/MOL
REMARK 927      BINDING AFFINITY PREDICTED BY RF-SCORE:    0.00 PKD
ROOT
HETATM    1  C   UNL     1     -10.181  13.925  66.610  1.00  0.00    -0.276 C  
HETATM    2  C   UNL     1     -10.507  14.149  68.087  1.00  0.00    -0.244 C  
HETATM    3  C   UNL     1      -9.162  14.013  68.914  1.00  0.00     0.039 C  
HETATM    4  C   UNL     1      -8.177  15.228  68.751  1.00  0.00    -0.169 C  
HETATM    5  C   UNL     1      -8.783  16.680  68.713  1.00  0.00    -0.260 C  
HETATM    6  C   UNL     1     -10.144  16.611  68.030  1.00  0.00    -0.262 C  
HETATM    7  C   UNL     1     -10.837  17.944  67.775  1.00  0.00    -0.237 C  
HETATM    8  C   UNL     1     -11.070  15.520  68.542  1.00  0.00    -0.307 C  
HETATM    9  C   UNL     1      -9.961  18.750  66.827  1.00  0.00    -0.394 C  
HETATM   10  C   UNL     1     -11.493  15.166  70.029  1.00  0.00    -0.315 C  
HETATM   11  C   UNL     1      -8.611  18.996  67.442  1.00  0.00    -0.301 C  
HETATM   12  C   UNL     1     -11.877  13.630  69.970  1.00  0.00    -0.378 C  
HETATM   13  C   UNL     1      -8.081  20.226  67.295  1.00  0.00    -0.381 C  
HETATM   14  C   UNL     1     -11.813  13.389  68.475  1.00  0.00    -0.366 C  
HETATM   15  C   UNL     1      -7.078  17.204  66.801  1.00  0.00    -0.259 C  
HETATM   16  C   UNL     1      -6.748  20.492  67.859  1.00  0.00    -0.308 C  
HETATM   17  O   UNL     1      -6.038  21.365  67.375  1.00  0.00    -0.373 OA 
HETATM   18  C   UNL     1      -7.835  17.792  68.027  1.00  0.00    -0.241 C  
HETATM   19  C   UNL     1      -6.414  19.753  69.111  1.00  0.00    -0.362 C  
HETATM   20  C   UNL     1      -6.750  18.254  69.058  1.00  0.00    -0.269 C  
ENDROOT
BRANCH  14  21
HETATM   21  O   UNL     1     -12.114  12.127  67.897  1.00  0.00    -0.502 OA 
BRANCH  21  22
HETATM   22  C   UNL     1     -11.433  11.121  68.564  1.00  0.00    -0.302 C  
HETATM   23  O   UNL     1     -10.241  10.870  68.398  1.00  0.00    -0.165 OA 
BRANCH  22  24
HETATM   24  C   UNL     1     -12.198  10.503  69.714  1.00  0.00    -0.252 C  
BRANCH  24  25
HETATM   25  C   UNL     1     -11.459   9.349  70.357  1.00  0.00    -0.272 C  
BRANCH  25  26
HETATM   26  C   UNL     1     -12.237   8.668  71.484  1.00  0.00    -0.368 C  
HETATM   27  C   UNL     1     -13.491   9.471  71.816  1.00  0.00    -0.480 C  
HETATM   28  C   UNL     1     -14.355   8.479  72.568  1.00  0.00    -0.325 C  
HETATM   29  C   UNL     1     -14.144   7.165  71.828  1.00  0.00    -0.440 C  
HETATM   30  C   UNL     1     -12.772   7.266  71.157  1.00  0.00    -0.349 C  
ENDBRANCH  25  26
ENDBRANCH  24  25
ENDBRANCH  22  24
ENDBRANCH  21  22
ENDBRANCH  14  21
TORSDOF 5
ENDMDL
