MODEL      162
REMARK 921   NORMALIZED FREE ENERGY PREDICTED BY IDOCK:    5.24 KCAL/MOL
REMARK 922        TOTAL FREE ENERGY PREDICTED BY IDOCK:    6.50 KCAL/MOL
REMARK 923 INTER-LIGAND FREE ENERGY PREDICTED BY IDOCK:    5.20 KCAL/MOL
REMARK 924 INTRA-LIGAND FREE ENERGY PREDICTED BY IDOCK:    1.30 KCAL/MOL
REMARK 927      BINDING AFFINITY PREDICTED BY RF-SCORE:    0.00 PKD
ROOT
HETATM    1  C   UNL     1     -12.517   7.861  70.902  1.00  0.00    -0.053 C  
HETATM    2  C   UNL     1     -11.202   8.522  70.430  1.00  0.00    -0.224 C  
HETATM    3  C   UNL     1     -10.744   7.757  69.162  1.00  0.00    -0.139 C  
HETATM    4  C   UNL     1     -10.152   8.289  71.541  1.00  0.00    -0.270 C  
ENDROOT
BRANCH   2   5
HETATM    5  C   UNL     1     -11.331  10.024  70.100  1.00  0.00    -0.357 A  
HETATM    6  C   UNL     1     -12.527  10.644  69.685  1.00  0.00    -0.121 A  
HETATM    7  C   UNL     1     -12.564  11.997  69.267  1.00  0.00     0.484 A  
HETATM    8  C   UNL     1     -11.404  12.777  69.280  1.00  0.00    -0.307 A  
HETATM    9  C   UNL     1     -10.188  10.837  70.142  1.00  0.00     0.383 A  
HETATM   10  C   UNL     1     -10.226  12.173  69.741  1.00  0.00     1.194 A  
BRANCH   8  11
HETATM   11  C   UNL     1     -11.264  14.168  68.668  1.00  0.00    -0.266 C  
BRANCH  11  12
HETATM   12  N   UNL     1     -10.222  15.090  69.158  1.00  0.00    -0.235 NA 
HETATM   13  C   UNL     1      -9.132  15.315  68.193  1.00  0.00    -0.174 C  
HETATM   14  C   UNL     1      -9.345  16.346  67.036  1.00  0.00    -0.228 C  
HETATM   15  N   UNL     1     -10.286  17.484  67.208  1.00  0.00    -0.324 NA 
HETATM   16  C   UNL     1     -11.304  17.190  68.220  1.00  0.00     0.197 C  
HETATM   17  C   UNL     1     -10.814  16.414  69.460  1.00  0.00    -0.338 C  
BRANCH  15  18
HETATM   18  C   UNL     1      -9.614  18.816  67.281  1.00  0.00    -0.303 C  
BRANCH  18  19
HETATM   19  C   UNL     1      -9.012  19.044  68.683  1.00  0.00    -0.402 A  
HETATM   20  C   UNL     1      -7.626  19.197  68.856  1.00  0.00    -0.371 A  
HETATM   21  C   UNL     1      -9.839  19.143  69.818  1.00  0.00     0.325 A  
HETATM   22  C   UNL     1      -7.090  19.470  70.120  1.00  0.00     0.197 A  
HETATM   23  C   UNL     1      -9.301  19.409  71.078  1.00  0.00     2.707 A  
HETATM   24  C   UNL     1      -7.928  19.581  71.228  1.00  0.00     3.008 A  
ENDBRANCH  18  19
BRANCH  18  25
HETATM   25  C   UNL     1      -8.523  19.082  66.220  1.00  0.00    -0.289 A  
HETATM   26  C   UNL     1      -6.471  19.524  64.336  1.00  0.00     0.143 A  
HETATM   27  C   UNL     1      -7.447  20.496  64.541  1.00  0.00     0.807 A  
HETATM   28 CL   UNL     1      -5.176  19.823  63.245  1.00  0.00    -0.250 Cl 
HETATM   29  C   UNL     1      -7.556  18.093  65.955  1.00  0.00    -0.166 A  
HETATM   30  C   UNL     1      -8.475  20.266  65.463  1.00  0.00     0.400 A  
HETATM   31  C   UNL     1      -6.535  18.315  65.028  1.00  0.00     0.175 A  
ENDBRANCH  18  25
ENDBRANCH  15  18
ENDBRANCH  11  12
ENDBRANCH   8  11
ENDBRANCH   2   5
TORSDOF 6
ENDMDL
