MODEL       87
REMARK 921   NORMALIZED FREE ENERGY PREDICTED BY IDOCK:   -4.92 KCAL/MOL
REMARK 922        TOTAL FREE ENERGY PREDICTED BY IDOCK:   -7.66 KCAL/MOL
REMARK 923 INTER-LIGAND FREE ENERGY PREDICTED BY IDOCK:   -7.29 KCAL/MOL
REMARK 924 INTRA-LIGAND FREE ENERGY PREDICTED BY IDOCK:   -0.37 KCAL/MOL
REMARK 927      BINDING AFFINITY PREDICTED BY RF-SCORE:    0.00 PKD
ROOT
HETATM    1  C   UNL     1     -12.521  12.358  64.190  1.00  0.00    -0.442 C  
HETATM    2  N   UNL     1     -11.546  13.452  64.157  1.00  0.00    -0.396 NA 
ENDROOT
BRANCH   2   3
HETATM    3  C   UNL     1     -10.374  13.158  65.012  1.00  0.00    -0.330 C  
BRANCH   3   4
HETATM    4  C   UNL     1     -10.699  12.353  66.263  1.00  0.00    -0.287 A  
HETATM    5  C   UNL     1     -10.348  10.978  66.409  1.00  0.00    -0.302 A  
HETATM    6  C   UNL     1     -11.397  13.009  67.296  1.00  0.00    -0.348 A  
HETATM    7  C   UNL     1      -9.624  10.241  65.442  1.00  0.00    -0.310 A  
HETATM    8  C   UNL     1      -9.364   8.877  65.595  1.00  0.00    -0.259 A  
HETATM    9  C   UNL     1     -11.773  12.325  68.444  1.00  0.00    -0.390 A  
HETATM   10  C   UNL     1      -9.804   8.215  66.732  1.00  0.00    -0.329 A  
HETATM   11  C   UNL     1     -11.462  10.975  68.581  1.00  0.00    -0.375 A  
HETATM   12  C   UNL     1     -10.763  10.291  67.577  1.00  0.00    -0.348 A  
HETATM   13  C   UNL     1     -10.486   8.921  67.722  1.00  0.00    -0.300 A  
ENDBRANCH   3   4
ENDBRANCH   2   3
BRANCH   2  14
HETATM   14  C   UNL     1     -12.203  14.710  64.540  1.00  0.00    -0.456 C  
BRANCH  14  15
HETATM   15  C   UNL     1     -11.224  15.833  64.728  1.00  0.00    -0.375 C  
HETATM   16  C   UNL     1     -11.153  16.574  65.847  1.00  0.00     0.171 C  
BRANCH  16  17
HETATM   17  C   UNL     1     -10.142  17.609  66.102  1.00  0.00    -0.307 A  
HETATM   18  C   UNL     1     -10.421  18.979  66.031  1.00  0.00    -0.530 A  
HETATM   19  C   UNL     1      -7.849  18.150  66.711  1.00  0.00    -0.257 A  
HETATM   20  C   UNL     1      -8.848  17.205  66.462  1.00  0.00    -0.293 A  
HETATM   21  C   UNL     1      -8.135  19.508  66.614  1.00  0.00    -0.324 A  
HETATM   22  C   UNL     1      -9.422  19.924  66.279  1.00  0.00    -0.505 A  
ENDBRANCH  16  17
ENDBRANCH  14  15
ENDBRANCH   2  14
TORSDOF 5
ENDMDL
