MODEL       72
REMARK 921   NORMALIZED FREE ENERGY PREDICTED BY IDOCK:   -5.82 KCAL/MOL
REMARK 922        TOTAL FREE ENERGY PREDICTED BY IDOCK:   -9.72 KCAL/MOL
REMARK 923 INTER-LIGAND FREE ENERGY PREDICTED BY IDOCK:   -9.04 KCAL/MOL
REMARK 924 INTRA-LIGAND FREE ENERGY PREDICTED BY IDOCK:   -0.68 KCAL/MOL
REMARK 927      BINDING AFFINITY PREDICTED BY RF-SCORE:    0.00 PKD
ROOT
HETATM    1  O   UNL     1      -8.413   9.950  67.136  1.00  0.00    -0.121 OA 
HETATM    2  C   UNL     1      -9.268   9.365  66.263  1.00  0.00    -0.180 C  
HETATM    3  C   UNL     1     -10.657   9.099  66.832  1.00  0.00    -0.167 C  
HETATM    4  O   UNL     1      -8.934   9.054  65.132  1.00  0.00    -0.200 OA 
ENDROOT
BRANCH   3   5
HETATM    5  N   UNL     1     -10.793   9.535  68.218  1.00  0.00    -0.420 N  
HETATM    6  C   UNL     1     -11.501  10.668  68.562  1.00  0.00    -0.265 C  
HETATM    7  H   UNL     1     -10.351   8.985  68.955  1.00  0.00     0.000 HD 
HETATM    8  O   UNL     1     -12.022  11.399  67.726  1.00  0.00    -0.637 OA 
BRANCH   6   9
HETATM    9  C   UNL     1     -11.558  10.980  70.063  1.00  0.00    -0.344 C  
BRANCH   9  10
HETATM   10  N   UNL     1     -11.815  12.380  70.355  1.00  0.00    -0.541 N  
HETATM   11  H   UNL     1     -11.323  13.093  69.817  1.00  0.00     0.000 HD 
HETATM   12  C   UNL     1     -12.697  12.779  71.334  1.00  0.00    -0.255 C  
HETATM   13  O   UNL     1     -13.346  11.976  71.999  1.00  0.00    -0.495 OA 
BRANCH  12  14
HETATM   14  C   UNL     1     -12.805  14.298  71.529  1.00  0.00    -0.346 C  
BRANCH  14  15
HETATM   15  N   UNL     1     -12.719  15.043  70.276  1.00  0.00    -0.555 N  
HETATM   16  C   UNL     1     -11.503  15.491  69.799  1.00  0.00    -0.331 C  
HETATM   17  H   UNL     1     -13.569  15.235  69.746  1.00  0.00     0.000 HD 
HETATM   18  O   UNL     1     -10.472  15.413  70.462  1.00  0.00    -0.280 OA 
BRANCH  16  19
HETATM   19  C   UNL     1     -11.561  16.159  68.436  1.00  0.00    -0.228 C  
BRANCH  19  20
HETATM   20  S   UNL     1     -10.770  15.158  67.158  1.00  0.00    -0.314 SA 
BRANCH  20  21
HETATM   21  C   UNL     1     -10.395  16.404  65.975  1.00  0.00    -0.352 C  
HETATM   22  O   UNL     1     -10.594  16.221  64.777  1.00  0.00    -0.658 OA 
BRANCH  21  23
HETATM   23  C   UNL     1      -9.814  17.676  66.484  1.00  0.00    -0.323 A  
HETATM   24  C   UNL     1      -8.625  17.628  67.224  1.00  0.00    -0.238 A  
HETATM   25  C   UNL     1      -8.084  18.801  67.759  1.00  0.00    -0.276 A  
HETATM   26  C   UNL     1      -8.731  20.021  67.568  1.00  0.00    -0.415 A  
HETATM   27  C   UNL     1      -9.912  20.075  66.831  1.00  0.00    -0.584 A  
HETATM   28  C   UNL     1     -10.455  18.909  66.292  1.00  0.00    -0.510 A  
ENDBRANCH  21  23
ENDBRANCH  20  21
ENDBRANCH  19  20
ENDBRANCH  16  19
ENDBRANCH  14  15
ENDBRANCH  12  14
ENDBRANCH   9  10
ENDBRANCH   6   9
ENDBRANCH   3   5
TORSDOF 9
ENDMDL
