MODEL       31
REMARK 921   NORMALIZED FREE ENERGY PREDICTED BY IDOCK:   -4.54 KCAL/MOL
REMARK 922        TOTAL FREE ENERGY PREDICTED BY IDOCK:   -6.78 KCAL/MOL
REMARK 923 INTER-LIGAND FREE ENERGY PREDICTED BY IDOCK:   -5.60 KCAL/MOL
REMARK 924 INTRA-LIGAND FREE ENERGY PREDICTED BY IDOCK:   -1.18 KCAL/MOL
REMARK 927      BINDING AFFINITY PREDICTED BY RF-SCORE:    0.00 PKD
ROOT
HETATM    1 CA   UNL     1     -12.930  14.777  64.937  1.00  0.00    -0.425 Ca 
HETATM    2  O   UNL     2     -13.008  12.253  63.709  1.00  0.00    -0.766 OA 
HETATM    3  O   UNL     3     -10.975  17.435  68.407  1.00  0.00    -0.285 OA 
HETATM    4  C   UNL     2     -11.673  11.694  63.936  1.00  0.00    -0.273 C  
HETATM    5  H   UNL     2     -13.341  11.760  62.968  1.00  0.00     0.000 HD 
HETATM    6  H   UNL     3     -10.567  18.289  68.488  1.00  0.00     0.000 HD 
HETATM    7  C   UNL     3     -10.184  16.545  67.631  1.00  0.00    -0.279 C  
ENDROOT
BRANCH   4   8
HETATM    8  C   UNL     2     -11.142  12.481  65.118  1.00  0.00    -0.299 C  
HETATM    9  H   UNL     2     -10.421  14.280  65.339  1.00  0.00     0.000 HD 
HETATM   10  O   UNL     2     -10.754  13.788  64.598  1.00  0.00    -0.387 OA 
BRANCH   8  11
HETATM   11  C   UNL     2     -10.097  11.812  65.983  1.00  0.00    -0.231 C  
HETATM   12  O   UNL     2      -9.898  11.013  68.214  1.00  0.00    -0.166 OA 
HETATM   13  H   UNL     2      -8.345  12.325  66.662  1.00  0.00     0.000 HD 
HETATM   14  O   UNL     2     -11.972  11.139  67.222  1.00  0.00    -0.452 OA 
HETATM   15  O   UNL     2      -9.001  12.745  66.119  1.00  0.00    -0.034 OA 
HETATM   16  C   UNL     2     -10.703  11.304  67.306  1.00  0.00    -0.251 C  
ENDBRANCH   8  11
ENDBRANCH   4   8
BRANCH   7  17
HETATM   17  C   UNL     3     -10.845  15.164  67.500  1.00  0.00    -0.301 C  
HETATM   18  O   UNL     3     -12.223  15.318  66.991  1.00  0.00    -0.054 OA 
HETATM   19  H   UNL     3     -12.632  14.464  66.910  1.00  0.00     0.000 HD 
BRANCH  17  20
HETATM   20  C   UNL     3     -10.770  14.251  68.732  1.00  0.00    -0.254 C  
HETATM   21  C   UNL     3     -11.454  15.011  69.897  1.00  0.00    -0.289 C  
HETATM   22  O   UNL     3      -9.373  13.909  68.962  1.00  0.00    -0.399 OA 
HETATM   23  O   UNL     3     -12.638  15.391  69.570  1.00  0.00    -0.154 OA 
HETATM   24  O   UNL     3     -10.788  15.274  70.918  1.00  0.00    -0.301 OA 
HETATM   25  H   UNL     3      -9.326  13.344  69.725  1.00  0.00     0.000 HD 
ENDBRANCH  17  20
ENDBRANCH   7  17
TORSDOF 4
ENDMDL
