MODEL      141
REMARK 921   NORMALIZED FREE ENERGY PREDICTED BY IDOCK:   -3.04 KCAL/MOL
REMARK 922        TOTAL FREE ENERGY PREDICTED BY IDOCK:   -5.08 KCAL/MOL
REMARK 923 INTER-LIGAND FREE ENERGY PREDICTED BY IDOCK:   -4.92 KCAL/MOL
REMARK 924 INTRA-LIGAND FREE ENERGY PREDICTED BY IDOCK:   -0.16 KCAL/MOL
REMARK 927      BINDING AFFINITY PREDICTED BY RF-SCORE:    0.00 PKD
ROOT
HETATM    1  C   UNL     1     -10.327   8.690  68.526  1.00  0.00    -0.196 C  
HETATM    2  O   UNL     1     -10.335   9.019  67.142  1.00  0.00    -0.243 OA 
ENDROOT
BRANCH   2   3
HETATM    3  N   UNL     1     -10.221  10.410  67.005  1.00  0.00    -0.215 NA 
HETATM    4  H   UNL     1     -10.961  11.026  66.667  1.00  0.00     0.000 HD 
BRANCH   3   5
HETATM    5  C   UNL     1      -9.038  10.801  67.372  1.00  0.00    -0.143 C  
HETATM    6  C   UNL     1      -8.719  11.692  68.544  1.00  0.00    -0.130 C  
HETATM    7  N   UNL     1      -7.350  12.131  68.270  1.00  0.00    -0.092 NA 
HETATM    8  C   UNL     1      -6.759  11.382  67.145  1.00  0.00    -0.121 C  
HETATM    9  C   UNL     1      -7.788  10.341  66.672  1.00  0.00    -0.116 C  
BRANCH   7  10
HETATM   10  C   UNL     1      -7.087  13.495  68.366  1.00  0.00    -0.107 A  
HETATM   11  N   UNL     1      -7.822  14.335  67.596  1.00  0.00    -0.163 NA 
HETATM   12  O   UNL     1      -6.329  20.550  68.419  1.00  0.00    -0.299 OA 
HETATM   13  C   UNL     1      -7.612  15.674  67.631  1.00  0.00    -0.158 A  
HETATM   14  C   UNL     1      -6.641  16.226  68.463  1.00  0.00    -0.130 A  
HETATM   15  N   UNL     1      -8.407  16.536  66.825  1.00  0.00    -0.211 NA 
HETATM   16  C   UNL     1      -6.453  17.690  68.486  1.00  0.00    -0.196 C  
HETATM   17  O   UNL     1      -7.954  20.692  66.865  1.00  0.00    -0.277 OA 
HETATM   18  C   UNL     1      -5.893  15.394  69.288  1.00  0.00    -0.104 A  
HETATM   19  F   UNL     1      -5.410  13.231  70.051  1.00  0.00    -0.082 F  
HETATM   20  C   UNL     1      -7.299  18.534  67.614  1.00  0.00    -0.223 C  
HETATM   21  O   UNL     1      -5.613  18.210  69.218  1.00  0.00    -0.198 OA 
HETATM   22  C   UNL     1      -6.126  14.024  69.238  1.00  0.00    -0.100 A  
HETATM   23  C   UNL     1      -7.236  20.007  67.579  1.00  0.00    -0.277 C  
HETATM   24  C   UNL     1      -8.193  17.900  66.845  1.00  0.00    -0.237 C  
BRANCH  15  25
HETATM   25  C   UNL     1      -9.632  15.987  66.215  1.00  0.00    -0.307 C  
HETATM   26  C   UNL     1     -10.725  15.477  67.128  1.00  0.00    -0.315 C  
HETATM   27  C   UNL     1     -10.987  16.653  66.241  1.00  0.00     0.123 C  
ENDBRANCH  15  25
ENDBRANCH   7  10
BRANCH   9  28
HETATM   28  C   UNL     1      -7.948  10.292  65.154  1.00  0.00    -0.147 C  
HETATM   29  H1  UNL     1      -9.342   9.689  63.739  1.00  0.00     0.000 HD 
HETATM   30  N   UNL     1      -9.235   9.722  64.752  1.00  0.00    -0.250 NA 
HETATM   31  H2  UNL     1     -10.011  10.219  65.190  1.00  0.00     0.000 HD 
ENDBRANCH   9  28
ENDBRANCH   3   5
ENDBRANCH   2   3
TORSDOF 5
ENDMDL
