MODEL      198
REMARK 921   NORMALIZED FREE ENERGY PREDICTED BY IDOCK:   -4.47 KCAL/MOL
REMARK 922        TOTAL FREE ENERGY PREDICTED BY IDOCK:   -9.66 KCAL/MOL
REMARK 923 INTER-LIGAND FREE ENERGY PREDICTED BY IDOCK:   -8.36 KCAL/MOL
REMARK 924 INTRA-LIGAND FREE ENERGY PREDICTED BY IDOCK:   -1.30 KCAL/MOL
REMARK 927      BINDING AFFINITY PREDICTED BY RF-SCORE:    0.00 PKD
ROOT
HETATM    1  C   UNL     1     -10.488  15.453  68.608  1.00  0.00    -0.237 C  
ENDROOT
BRANCH   1   2
HETATM    2  C   UNL     1     -11.355  14.753  67.510  1.00  0.00    -0.344 C  
HETATM    3  O   UNL     1     -12.707  14.567  67.947  1.00  0.00    -0.263 OA 
HETATM    4  H   UNL     1     -13.234  14.142  67.280  1.00  0.00     0.000 HD 
BRANCH   2   5
HETATM    5  C   UNL     1     -10.749  13.439  67.008  1.00  0.00    -0.271 A  
HETATM    6  C   UNL     1     -10.512   8.829  67.575  1.00  0.00    -0.271 C  
HETATM    7  C   UNL     1     -10.239  11.093  67.421  1.00  0.00    -0.190 A  
HETATM    8  C   UNL     1     -10.340  13.254  65.674  1.00  0.00    -0.292 A  
HETATM    9  C   UNL     1      -9.825  10.926  66.098  1.00  0.00    -0.222 A  
HETATM   10  C   UNL     1      -9.418   8.660  66.533  1.00  0.00    -0.216 C  
HETATM   11  C   UNL     1     -10.656  12.343  67.887  1.00  0.00    -0.231 A  
HETATM   12  O   UNL     1      -9.428   9.724  65.572  1.00  0.00    -0.221 OA 
HETATM   13  O   UNL     1     -10.310  10.045  68.305  1.00  0.00    -0.175 OA 
HETATM   14  C   UNL     1      -9.858  12.014  65.230  1.00  0.00    -0.236 A  
ENDBRANCH   2   5
ENDBRANCH   1   2
BRANCH   1  15
HETATM   15  N   UNL     1      -9.076  15.108  68.369  1.00  0.00    -0.179 NA 
HETATM   16  H   UNL     1      -8.808  14.139  68.544  1.00  0.00     0.000 HD 
BRANCH  15  17
HETATM   17  C   UNL     1      -8.156  15.890  67.969  1.00  0.00    -0.141 C  
HETATM   18  H   UNL     1      -6.965  16.521  66.436  1.00  0.00     0.000 HD 
HETATM   19  O   UNL     1      -7.653  15.937  66.735  1.00  0.00    -0.226 OA 
BRANCH  17  20
HETATM   20  C   UNL     1      -7.525  16.869  68.926  1.00  0.00    -0.238 C  
BRANCH  20  21
HETATM   21  C   UNL     1      -7.326  18.250  68.311  1.00  0.00    -0.277 C  
BRANCH  21  22
HETATM   22  C   UNL     1      -8.640  18.959  67.978  1.00  0.00    -0.330 C  
BRANCH  22  23
HETATM   23  C   UNL     1      -8.508  19.777  66.692  1.00  0.00    -0.371 C  
BRANCH  23  24
HETATM   24  C   UNL     1      -7.160  20.492  66.611  1.00  0.00    -0.313 C  
BRANCH  24  25
HETATM   25  C   UNL     1      -6.509  20.283  65.243  1.00  0.00    -0.315 C  
HETATM   26  C   UNL     1      -6.245  18.813  64.967  1.00  0.00    -0.274 C  
ENDBRANCH  24  25
ENDBRANCH  23  24
ENDBRANCH  22  23
ENDBRANCH  21  22
ENDBRANCH  20  21
ENDBRANCH  17  20
ENDBRANCH  15  17
ENDBRANCH   1  15
BRANCH   1  27
HETATM   27  C   UNL     1     -10.731  15.013  70.094  1.00  0.00    -0.156 C  
BRANCH  27  28
HETATM   28  N   UNL     1     -12.045  15.170  70.764  1.00  0.00    -0.308 NA 
HETATM   29  C   UNL     1     -11.892  16.043  71.952  1.00  0.00    -0.534 C  
HETATM   30  C   UNL     1     -12.571  13.897  71.260  1.00  0.00    -0.371 C  
HETATM   31  C   UNL     1     -12.733  15.456  73.077  1.00  0.00    -0.561 C  
HETATM   32  C   UNL     1     -13.388  14.226  72.493  1.00  0.00    -0.595 C  
ENDBRANCH  27  28
ENDBRANCH   1  27
TORSDOF 12
ENDMDL
