MODEL       91
REMARK 921   NORMALIZED FREE ENERGY PREDICTED BY IDOCK:    1.13 KCAL/MOL
REMARK 922        TOTAL FREE ENERGY PREDICTED BY IDOCK:    1.28 KCAL/MOL
REMARK 923 INTER-LIGAND FREE ENERGY PREDICTED BY IDOCK:    0.63 KCAL/MOL
REMARK 924 INTRA-LIGAND FREE ENERGY PREDICTED BY IDOCK:    0.65 KCAL/MOL
REMARK 927      BINDING AFFINITY PREDICTED BY RF-SCORE:    0.00 PKD
ROOT
HETATM    1  C   UNL     1     -11.100  12.990  64.556  1.00  0.00    -0.351 C  
HETATM    2  O   UNL     1     -11.413  13.480  65.865  1.00  0.00    -0.310 OA 
ENDROOT
BRANCH   2   3
HETATM    3  C   UNL     1     -10.434  14.235  66.470  1.00  0.00    -0.287 A  
HETATM    4  C   UNL     1     -10.542  15.646  66.376  1.00  0.00    -0.308 A  
HETATM    5  C   UNL     1      -9.600  16.402  67.111  1.00  0.00    -0.239 A  
HETATM    6  C   UNL     1      -9.303  13.623  67.087  1.00  0.00    -0.240 A  
HETATM    7  C   UNL     1      -8.400  14.462  67.780  1.00  0.00    -0.172 A  
HETATM    8  C   UNL     1      -8.540  15.857  67.850  1.00  0.00    -0.163 A  
BRANCH   4   9
HETATM    9  C   UNL     1     -11.621  16.411  65.553  1.00  0.00     0.717 C  
HETATM   10  C   UNL     1     -11.485  16.279  64.017  1.00  0.00     0.407 C  
HETATM   11  C   UNL     1     -13.018  15.906  65.964  1.00  0.00     3.296 C  
HETATM   12  C   UNL     1     -11.576  17.947  65.811  1.00  0.00     2.202 C  
ENDBRANCH   4   9
BRANCH   8  13
HETATM   13  N   UNL     1      -7.609  16.684  68.619  1.00  0.00    -0.202 N  
HETATM   14  C   UNL     1      -6.558  16.109  69.335  1.00  0.00    -0.197 C  
HETATM   15  O   UNL     1      -8.692  18.761  68.204  1.00  0.00    -0.288 OA 
HETATM   16  C   UNL     1      -5.721  16.797  70.112  1.00  0.00    -0.207 C  
HETATM   17  H   UNL     1      -6.828  19.797  69.309  1.00  0.00     0.000 HD 
HETATM   18  C   UNL     1      -5.876  18.247  70.214  1.00  0.00    -0.144 C  
HETATM   19  O   UNL     1      -5.195  18.909  70.986  1.00  0.00    -0.248 OA 
HETATM   20  N   UNL     1      -6.823  18.781  69.399  1.00  0.00    -0.237 N  
HETATM   21  C   UNL     1      -7.776  18.093  68.683  1.00  0.00    -0.297 C  
ENDBRANCH   8  13
BRANCH   6  22
HETATM   22  C   UNL     1      -9.027  12.153  67.019  1.00  0.00    -0.201 A  
HETATM   23  C   UNL     1      -7.896   9.771  64.404  1.00  0.00    -0.137 A  
HETATM   24  C   UNL     1      -8.319  11.607  65.933  1.00  0.00     0.198 A  
HETATM   25  C   UNL     1      -8.004   8.424  64.077  1.00  0.00    -0.151 A  
HETATM   26  C   UNL     1      -8.346  10.235  65.645  1.00  0.00    -0.159 A  
HETATM   27  C   UNL     1      -8.526   7.528  65.002  1.00  0.00     0.005 A  
HETATM   28  C   UNL     1      -9.444   9.855  67.762  1.00  0.00    -0.158 A  
HETATM   29  C   UNL     1      -8.946   7.967  66.260  1.00  0.00    -0.208 A  
HETATM   30  C   UNL     1      -9.543  11.241  67.958  1.00  0.00    -0.182 A  
HETATM   31  C   UNL     1      -8.902   9.337  66.573  1.00  0.00    -0.154 A  
BRANCH  27  32
HETATM   32  N   UNL     1      -8.589   6.147  64.664  1.00  0.00    -0.345 N  
HETATM   33  H   UNL     1      -8.358   5.821  63.726  1.00  0.00     0.000 HD 
BRANCH  32  34
HETATM   34  S   UNL     1      -9.062   5.063  65.883  1.00  0.00    -0.154 S  
HETATM   35  C   UNL     1      -8.706   3.490  65.131  1.00  0.00    -0.118 C  
HETATM   36  O   UNL     1     -10.500   5.200  65.965  1.00  0.00    -0.231 OA 
HETATM   37  O   UNL     1      -8.221   5.242  67.043  1.00  0.00    -0.108 OA 
ENDBRANCH  32  34
ENDBRANCH  27  32
ENDBRANCH   6  22
ENDBRANCH   2   3
TORSDOF 6
ENDMDL
