MODEL      146
REMARK 921   NORMALIZED FREE ENERGY PREDICTED BY IDOCK:   -5.76 KCAL/MOL
REMARK 922        TOTAL FREE ENERGY PREDICTED BY IDOCK:  -10.70 KCAL/MOL
REMARK 923 INTER-LIGAND FREE ENERGY PREDICTED BY IDOCK:   -9.04 KCAL/MOL
REMARK 924 INTRA-LIGAND FREE ENERGY PREDICTED BY IDOCK:   -1.67 KCAL/MOL
REMARK 927      BINDING AFFINITY PREDICTED BY RF-SCORE:    0.00 PKD
ROOT
HETATM    1 MG   UNL     3     -12.333   6.529  67.177  1.00  0.00    -0.570 Mg 
HETATM    2  O   UNL     4     -12.180   4.863  73.154  1.00  0.00    -0.379 OA 
HETATM    3  C   UNL     4     -12.772   5.652  72.140  1.00  0.00     0.838 C  
HETATM    4  H   UNL     4     -12.717   4.120  73.405  1.00  0.00     0.000 HD 
HETATM    5  O   UNL     5     -10.096  12.821  63.353  1.00  0.00    -0.613 OA 
HETATM    6  H   UNL     5      -9.190  12.757  63.074  1.00  0.00     0.000 HD 
HETATM    7  C   UNL     5     -10.248  12.489  64.733  1.00  0.00    -0.280 C  
ENDROOT
BRANCH   3   8
HETATM    8  C   UNL     4     -11.905   6.853  71.734  1.00  0.00    -0.316 C  
HETATM    9  O   UNL     4     -11.282   6.592  70.462  1.00  0.00    -0.292 OA 
HETATM   10  H   UNL     4     -10.745   7.335  70.211  1.00  0.00     0.000 HD 
BRANCH   8  11
HETATM   11  C   UNL     4     -12.571   8.255  71.619  1.00  0.00    -0.327 C  
HETATM   12  O   UNL     4     -13.019   8.768  72.869  1.00  0.00    -0.628 OA 
HETATM   13  H   UNL     4     -13.426   9.624  72.799  1.00  0.00     0.000 HD 
BRANCH  11  14
HETATM   14  C   UNL     4     -11.840   9.344  70.789  1.00  0.00    -0.256 C  
HETATM   15  H   UNL     4     -10.072  10.171  70.867  1.00  0.00     0.000 HD 
HETATM   16  O   UNL     4     -10.519   9.505  71.375  1.00  0.00    -0.317 OA 
BRANCH  14  17
HETATM   17  C   UNL     4     -12.508  10.729  70.558  1.00  0.00    -0.360 C  
HETATM   18  C   UNL     4     -11.549  11.755  69.824  1.00  0.00    -0.299 C  
HETATM   19  H   UNL     4     -13.536  12.083  71.609  1.00  0.00     0.000 HD 
HETATM   20  O   UNL     4     -13.127  11.237  71.750  1.00  0.00    -0.472 OA 
HETATM   21  O   UNL     4     -10.806  11.210  68.903  1.00  0.00    -0.191 OA 
HETATM   22  O   UNL     4     -11.509  12.950  70.227  1.00  0.00    -0.058 OA 
ENDBRANCH  14  17
ENDBRANCH  11  14
ENDBRANCH   8  11
ENDBRANCH   3   8
BRANCH   7  23
HETATM   23  C   UNL     5     -11.718  12.592  65.187  1.00  0.00    -0.367 C  
HETATM   24  O   UNL     5     -11.924  11.663  66.253  1.00  0.00    -0.401 OA 
HETATM   25  H   UNL     5     -12.830  11.726  66.532  1.00  0.00     0.000 HD 
BRANCH  23  26
HETATM   26  C   UNL     5     -12.082  14.028  65.623  1.00  0.00    -0.417 C  
HETATM   27  O   UNL     5     -13.519  14.187  65.598  1.00  0.00    -0.725 OA 
HETATM   28  H   UNL     5     -13.742  15.071  65.866  1.00  0.00     0.000 HD 
BRANCH  26  29
HETATM   29  C   UNL     5     -11.507  14.547  66.971  1.00  0.00    -0.370 C  
HETATM   30  O   UNL     5     -12.491  14.627  68.001  1.00  0.00    -0.595 OA 
HETATM   31  H   UNL     5     -12.139  14.944  68.825  1.00  0.00     0.000 HD 
BRANCH  29  32
HETATM   32  C   UNL     5     -10.626  15.807  66.939  1.00  0.00    -0.317 C  
HETATM   33  C   UNL     5     -10.765  16.760  68.144  1.00  0.00    -0.361 C  
HETATM   34  O   UNL     5     -10.830  16.546  65.682  1.00  0.00    -0.271 OA 
HETATM   35  O   UNL     5     -10.992  16.234  69.274  1.00  0.00    -0.281 OA 
HETATM   36  O   UNL     5     -10.700  18.001  67.825  1.00  0.00    -0.410 OA 
HETATM   37  H   UNL     5     -10.287  17.324  65.662  1.00  0.00     0.000 HD 
ENDBRANCH  29  32
ENDBRANCH  26  29
ENDBRANCH  23  26
ENDBRANCH   7  23
TORSDOF 8
ENDMDL
