MODEL       56
REMARK 921   NORMALIZED FREE ENERGY PREDICTED BY IDOCK:   -6.01 KCAL/MOL
REMARK 922        TOTAL FREE ENERGY PREDICTED BY IDOCK:  -11.52 KCAL/MOL
REMARK 923 INTER-LIGAND FREE ENERGY PREDICTED BY IDOCK:   -9.03 KCAL/MOL
REMARK 924 INTRA-LIGAND FREE ENERGY PREDICTED BY IDOCK:   -2.49 KCAL/MOL
REMARK 927      BINDING AFFINITY PREDICTED BY RF-SCORE:    0.00 PKD
ROOT
HETATM    1  O   UNL     1      -9.259   8.816  72.334  1.00  0.00    -0.361 OA 
HETATM    2  C   UNL     1      -9.560   8.942  70.965  1.00  0.00    -0.255 C  
HETATM    3  H   UNL     1      -8.332   8.631  72.431  1.00  0.00     0.000 HD 
ENDROOT
BRANCH   2   4
HETATM    4  N   UNL     1     -10.957   9.221  70.819  1.00  0.00    -0.260 N  
HETATM    5  C   UNL     1     -11.412  10.571  70.554  1.00  0.00    -0.345 C  
HETATM    6  O   UNL     1     -11.659   7.458  72.162  1.00  0.00    -0.275 OA 
HETATM    7  C   UNL     1     -12.668  10.596  71.455  1.00  0.00    -0.444 C  
HETATM    8  N   UNL     1     -12.925   9.323  71.861  1.00  0.00    -0.378 NA 
HETATM    9  O   UNL     1     -13.380  11.554  71.720  1.00  0.00    -0.403 OA 
HETATM   10  C   UNL     1     -11.846   8.542  71.633  1.00  0.00    -0.311 C  
BRANCH   5  11
HETATM   11  N   UNL     1     -11.799  10.729  69.174  1.00  0.00    -0.454 N  
HETATM   12  H   UNL     1     -12.725  10.427  68.874  1.00  0.00     0.000 HD 
BRANCH  11  13
HETATM   13  C   UNL     1     -10.942  11.277  68.265  1.00  0.00    -0.224 C  
HETATM   14  O   UNL     1      -9.892  11.828  68.567  1.00  0.00    -0.203 OA 
BRANCH  13  15
HETATM   15  N   UNL     1     -11.349  11.070  66.973  1.00  0.00    -0.188 N  
HETATM   16  H   UNL     1     -12.189  10.523  66.785  1.00  0.00     0.000 HD 
BRANCH  15  17
HETATM   17  C   UNL     1     -10.593  11.621  65.888  1.00  0.00    -0.271 C  
BRANCH  17  18
HETATM   18  N   UNL     1     -10.933  12.996  65.632  1.00  0.00    -0.272 N  
HETATM   19  H   UNL     1     -10.202  13.676  65.422  1.00  0.00     0.000 HD 
BRANCH  18  20
HETATM   20  C   UNL     1     -12.246  13.384  65.674  1.00  0.00    -0.463 C  
HETATM   21  O   UNL     1     -13.150  12.794  65.097  1.00  0.00    -0.750 OA 
BRANCH  20  22
HETATM   22  N   UNL     1     -12.439  14.506  66.446  1.00  0.00    -0.405 N  
HETATM   23  H   UNL     1     -13.306  15.041  66.411  1.00  0.00     0.000 HD 
BRANCH  22  24
HETATM   24  C   UNL     1     -11.349  14.879  67.305  1.00  0.00    -0.349 C  
HETATM   25  N   UNL     1     -10.940  16.261  67.258  1.00  0.00    -0.211 N  
HETATM   26  O   UNL     1     -12.378  14.001  69.399  1.00  0.00    -0.333 OA 
HETATM   27  C   UNL     1     -10.565  16.714  68.507  1.00  0.00    -0.338 C  
HETATM   28  N   UNL     1     -10.967  15.806  69.431  1.00  0.00    -0.271 NA 
HETATM   29  O   UNL     1     -10.011  17.769  68.762  1.00  0.00    -0.347 OA 
HETATM   30  C   UNL     1     -11.661  14.803  68.820  1.00  0.00    -0.320 C  
BRANCH  25  31
HETATM   31  C   UNL     1     -10.674  16.967  66.045  1.00  0.00    -0.116 C  
HETATM   32  H   UNL     1      -9.905  16.547  64.321  1.00  0.00     0.000 HD 
HETATM   33  O   UNL     1     -10.083  16.078  65.128  1.00  0.00    -0.485 OA 
ENDBRANCH  25  31
ENDBRANCH  22  24
ENDBRANCH  20  22
ENDBRANCH  18  20
ENDBRANCH  17  18
ENDBRANCH  15  17
ENDBRANCH  13  15
ENDBRANCH  11  13
ENDBRANCH   5  11
ENDBRANCH   2   4
TORSDOF 10
ENDMDL
