MODEL       16
REMARK 921   NORMALIZED FREE ENERGY PREDICTED BY IDOCK:   -5.85 KCAL/MOL
REMARK 922        TOTAL FREE ENERGY PREDICTED BY IDOCK:   -8.38 KCAL/MOL
REMARK 923 INTER-LIGAND FREE ENERGY PREDICTED BY IDOCK:   -7.49 KCAL/MOL
REMARK 924 INTRA-LIGAND FREE ENERGY PREDICTED BY IDOCK:   -0.89 KCAL/MOL
REMARK 927      BINDING AFFINITY PREDICTED BY RF-SCORE:    0.00 PKD
ROOT
HETATM    1  C   UNL     1     -11.955  15.933  71.321  1.00  0.00    -0.442 C  
HETATM    2  N   UNL     1     -12.064  14.942  70.264  1.00  0.00    -0.303 N  
ENDROOT
BRANCH   2   3
HETATM    3  N   UNL     1     -12.590  13.671  70.511  1.00  0.00    -0.299 NA 
HETATM    4  H   UNL     1     -13.581  13.515  70.698  1.00  0.00     0.000 HD 
HETATM    5  O   UNL     1     -11.768  12.753  70.487  1.00  0.00    -0.531 OA 
HETATM    6  H   UNL     1     -12.125  11.890  70.655  1.00  0.00     0.000 HD 
ENDBRANCH   2   3
BRANCH   2   7
HETATM    7  C   UNL     1     -11.775  15.329  68.956  1.00  0.00    -0.347 C  
HETATM    8  O   UNL     1     -11.393  16.464  68.662  1.00  0.00    -0.355 OA 
BRANCH   7   9
HETATM    9  N   UNL     1     -11.968  14.367  67.995  1.00  0.00    -0.509 N  
HETATM   10  H   UNL     1     -12.855  13.863  67.969  1.00  0.00     0.000 HD 
BRANCH   9  11
HETATM   11  C   UNL     1     -10.929  14.044  67.003  1.00  0.00    -0.297 C  
HETATM   12  C   UNL     1     -10.837  12.515  66.845  1.00  0.00    -0.248 C  
HETATM   13  O   UNL     1     -12.041  11.976  66.298  1.00  0.00    -0.596 OA 
HETATM   14  O   UNL     1     -10.661  11.943  68.143  1.00  0.00    -0.194 OA 
HETATM   15  H   UNL     1     -10.605  11.000  68.046  1.00  0.00     0.000 HD 
HETATM   16  C   UNL     1     -12.375  12.479  64.993  1.00  0.00    -0.453 C  
HETATM   17  C   UNL     1     -12.448  14.022  64.969  1.00  0.00    -0.425 C  
HETATM   18  H   UNL     1     -10.240  14.906  63.948  1.00  0.00     0.000 HD 
HETATM   19  C   UNL     1     -11.218  14.674  65.628  1.00  0.00    -0.342 C  
HETATM   20  O   UNL     1     -13.641  14.445  65.646  1.00  0.00    -0.558 OA 
HETATM   21  O   UNL     1     -10.062  14.517  64.797  1.00  0.00    -0.340 OA 
HETATM   22  H   UNL     1     -13.686  15.394  65.631  1.00  0.00     0.000 HD 
BRANCH  16  23
HETATM   23  C   UNL     1     -11.469  11.878  63.907  1.00  0.00    -0.426 C  
HETATM   24  O   UNL     1     -12.201  11.549  62.732  1.00  0.00    -0.820 OA 
HETATM   25  H   UNL     1     -11.641  11.177  62.059  1.00  0.00     0.000 HD 
ENDBRANCH  16  23
ENDBRANCH   9  11
ENDBRANCH   7   9
ENDBRANCH   2   7
TORSDOF 5
ENDMDL
