MODEL       19
REMARK 921   NORMALIZED FREE ENERGY PREDICTED BY IDOCK:   -5.78 KCAL/MOL
REMARK 922        TOTAL FREE ENERGY PREDICTED BY IDOCK:   -9.57 KCAL/MOL
REMARK 923 INTER-LIGAND FREE ENERGY PREDICTED BY IDOCK:   -8.79 KCAL/MOL
REMARK 924 INTRA-LIGAND FREE ENERGY PREDICTED BY IDOCK:   -0.78 KCAL/MOL
REMARK 927      BINDING AFFINITY PREDICTED BY RF-SCORE:    0.00 PKD
ROOT
HETATM    1  C   UNL     1     -11.290  12.120  66.589  1.00  0.00    -0.350 C  
HETATM    2  S   UNL     1      -9.634  11.581  66.093  1.00  0.00    -0.231 SA 
HETATM    3  C   UNL     1      -9.793   9.971  66.903  1.00  0.00    -0.197 C  
HETATM    4  C   UNL     1     -10.290  10.033  68.342  1.00  0.00    -0.218 C  
HETATM    5  O   UNL     1     -12.270  12.013  70.754  1.00  0.00    -0.377 OA 
HETATM    6  C   UNL     1     -11.041  11.059  68.850  1.00  0.00    -0.239 C  
HETATM    7  N   UNL     1     -11.358  12.125  68.043  1.00  0.00    -0.272 N  
HETATM    8  C   UNL     1     -11.544  13.698  66.623  1.00  0.00    -0.364 C  
HETATM    9  C   UNL     1     -11.494  11.014  70.304  1.00  0.00    -0.273 C  
HETATM   10  O   UNL     1     -12.359  13.902  69.135  1.00  0.00    -0.314 OA 
HETATM   11  C   UNL     1     -11.872  13.368  68.162  1.00  0.00    -0.361 C  
HETATM   12  O   UNL     1     -11.244  10.085  71.062  1.00  0.00    -0.341 OA 
ENDROOT
BRANCH   4  13
HETATM   13  C   UNL     1      -9.755   8.847  69.153  1.00  0.00    -0.168 C  
BRANCH  13  14
HETATM   14  S   UNL     1     -10.607   7.308  68.701  1.00  0.00    -0.130 SA 
BRANCH  14  15
HETATM   15  C   UNL     1     -11.093   6.751  70.264  1.00  0.00    -0.310 A  
HETATM   16  N   UNL     1     -12.277   6.914  70.806  1.00  0.00    -0.364 NA 
HETATM   17  N   UNL     1     -10.974   5.895  72.301  1.00  0.00    -0.251 NA 
HETATM   18  N   UNL     1     -12.186   6.386  72.074  1.00  0.00    -0.327 NA 
HETATM   19  C   UNL     1      -8.920   5.686  71.053  1.00  0.00    -0.141 C  
HETATM   20  N   UNL     1     -10.284   6.120  71.166  1.00  0.00    -0.193 NA 
ENDBRANCH  14  15
ENDBRANCH  13  14
ENDBRANCH   4  13
BRANCH   8  21
HETATM   21  O   UNL     1     -12.699  14.144  65.856  1.00  0.00    -0.487 OA 
HETATM   22  C   UNL     1     -12.457  14.442  64.482  1.00  0.00    -0.339 C  
ENDBRANCH   8  21
BRANCH   8  23
HETATM   23  N   UNL     1     -10.325  14.511  66.324  1.00  0.00    -0.285 N  
HETATM   24  C   UNL     1     -10.098  15.767  66.827  1.00  0.00    -0.271 C  
HETATM   25  H   UNL     1      -9.620  14.107  65.708  1.00  0.00     0.000 HD 
HETATM   26  O   UNL     1     -10.896  16.348  67.553  1.00  0.00    -0.315 OA 
BRANCH  24  27
HETATM   27  C   UNL     1      -8.820  16.434  66.357  1.00  0.00    -0.311 C  
BRANCH  27  28
HETATM   28  S   UNL     1      -8.258  17.663  67.583  1.00  0.00    -0.228 SA 
BRANCH  28  29
HETATM   29  C   UNL     1      -8.600  19.221  66.673  1.00  0.00    -0.322 C  
HETATM   30  C   UNL     1      -7.683  20.322  67.001  1.00  0.00    -0.321 C  
HETATM   31  N   UNL     1      -6.954  21.187  67.257  1.00  0.00    -0.493 NA 
ENDBRANCH  28  29
ENDBRANCH  27  28
ENDBRANCH  24  27
ENDBRANCH   8  23
TORSDOF 8
ENDMDL
