MODEL        1
REMARK 921   NORMALIZED FREE ENERGY PREDICTED BY IDOCK:   -8.14 KCAL/MOL
REMARK 922        TOTAL FREE ENERGY PREDICTED BY IDOCK:  -10.24 KCAL/MOL
REMARK 923 INTER-LIGAND FREE ENERGY PREDICTED BY IDOCK:   -9.57 KCAL/MOL
REMARK 924 INTRA-LIGAND FREE ENERGY PREDICTED BY IDOCK:   -0.67 KCAL/MOL
REMARK 927      BINDING AFFINITY PREDICTED BY RF-SCORE:    0.00 PKD
ROOT
HETATM    1  N   UNL     1     -11.066  11.212  63.419  1.00  0.00    -0.742 N  
HETATM    2  H2  UNL     1     -11.258  10.512  62.701  1.00  0.00     0.000 HD 
HETATM    3  C   UNL     1     -12.046  12.093  63.769  1.00  0.00    -0.525 C  
HETATM    4  H1  UNL     1     -10.146  11.238  63.858  1.00  0.00     0.000 HD 
HETATM    5  O   UNL     1     -13.151  12.062  63.242  1.00  0.00    -0.701 OA 
ENDROOT
BRANCH   3   6
HETATM    6  C   UNL     1     -11.721  13.088  64.806  1.00  0.00    -0.389 A  
HETATM    7  C   UNL     1     -11.565  14.462  64.481  1.00  0.00    -0.393 A  
HETATM    8  C   UNL     1     -11.239  15.467  65.443  1.00  0.00    -0.272 A  
HETATM    9  C   UNL     1     -11.036  15.201  66.810  1.00  0.00    -0.321 A  
HETATM   10  C   UNL     1     -11.210  13.851  67.092  1.00  0.00    -0.328 A  
HETATM   11  C   UNL     1     -11.098  13.295  68.332  1.00  0.00    -0.270 A  
HETATM   12  N   UNL     1     -11.392  11.958  68.172  1.00  0.00    -0.264 NA 
HETATM   13  C   UNL     1     -11.539  12.793  66.176  1.00  0.00    -0.379 A  
HETATM   14  N   UNL     1     -11.616  11.634  66.864  1.00  0.00    -0.542 NA 
BRANCH  12  15
HETATM   15  C   UNL     1     -11.475  10.968  69.194  1.00  0.00    -0.301 A  
HETATM   16  C   UNL     1     -12.162  11.225  70.387  1.00  0.00    -0.453 A  
HETATM   17  C   UNL     1     -12.225  10.252  71.388  1.00  0.00    -0.481 A  
HETATM   18  C   UNL     1     -11.608   9.004  71.224  1.00  0.00    -0.387 A  
HETATM   19  C   UNL     1     -10.935   8.747  70.021  1.00  0.00    -0.216 A  
HETATM   20  C   UNL     1     -10.870   9.717  69.014  1.00  0.00    -0.223 A  
BRANCH  18  21
HETATM   21  C   UNL     1     -11.635   7.962  72.331  1.00  0.00    -0.436 C  
HETATM   22  C   UNL     1     -10.258   7.792  73.000  1.00  0.00    -0.393 C  
HETATM   23  C   UNL     1     -10.280   6.651  74.014  1.00  0.00    -0.395 C  
HETATM   24  C   UNL     1     -10.818   5.366  73.388  1.00  0.00    -0.297 C  
HETATM   25  N   UNL     1     -12.161   5.557  72.837  1.00  0.00    -0.510 NA 
HETATM   26  C   UNL     1     -12.158   6.605  71.807  1.00  0.00    -0.353 C  
HETATM   27  H   UNL     1     -12.844   5.748  73.568  1.00  0.00     0.000 HD 
ENDBRANCH  18  21
ENDBRANCH  12  15
ENDBRANCH   3   6
TORSDOF 3
ENDMDL
