MODEL       24
REMARK 921   NORMALIZED FREE ENERGY PREDICTED BY IDOCK:   -5.75 KCAL/MOL
REMARK 922        TOTAL FREE ENERGY PREDICTED BY IDOCK:  -10.58 KCAL/MOL
REMARK 923 INTER-LIGAND FREE ENERGY PREDICTED BY IDOCK:   -9.56 KCAL/MOL
REMARK 924 INTRA-LIGAND FREE ENERGY PREDICTED BY IDOCK:   -1.03 KCAL/MOL
REMARK 927      BINDING AFFINITY PREDICTED BY RF-SCORE:    0.00 PKD
ROOT
HETATM    1  C   UNL     1     -10.231  19.438  69.052  1.00  0.00    -0.307 C  
HETATM    2  C   UNL     1     -10.086  19.474  67.537  1.00  0.00    -0.406 C  
ENDROOT
BRANCH   2   3
HETATM    3  N   UNL     1      -8.860  18.827  67.059  1.00  0.00    -0.287 N  
BRANCH   3   4
HETATM    4  C   UNL     1      -7.576  19.358  67.529  1.00  0.00    -0.250 C  
HETATM    5  C   UNL     1      -6.900  20.309  66.557  1.00  0.00    -0.274 C  
ENDBRANCH   3   4
BRANCH   3   6
HETATM    6  C   UNL     1      -9.011  17.630  66.360  1.00  0.00    -0.231 C  
HETATM    7  O   UNL     1      -8.047  17.025  65.891  1.00  0.00    -0.494 OA 
BRANCH   6   8
HETATM    8  N   UNL     1     -10.311  17.168  66.276  1.00  0.00    -0.329 N  
HETATM    9  H   UNL     1     -11.035  17.790  65.918  1.00  0.00     0.000 HD 
BRANCH   8  10
HETATM   10  C   UNL     1     -10.666  15.865  66.672  1.00  0.00    -0.270 A  
HETATM   11  C   UNL     1     -10.767  15.502  68.013  1.00  0.00    -0.283 A  
HETATM   12  C   UNL     1     -11.186  14.216  68.365  1.00  0.00    -0.289 A  
HETATM   13  C   UNL     1     -11.535  13.276  67.385  1.00  0.00    -0.332 A  
HETATM   14  C   UNL     1     -10.939  14.917  65.686  1.00  0.00    -0.347 A  
HETATM   15  C   UNL     1     -11.399  13.633  66.031  1.00  0.00    -0.322 A  
BRANCH  13  16
HETATM   16  O   UNL     1     -12.047  12.041  67.676  1.00  0.00    -0.547 OA 
BRANCH  16  17
HETATM   17  C   UNL     1     -11.986  11.604  69.044  1.00  0.00    -0.305 C  
BRANCH  17  18
HETATM   18  C   UNL     1     -11.071  10.375  69.137  1.00  0.00    -0.246 C  
HETATM   19  H   UNL     1      -9.161  10.003  68.865  1.00  0.00     0.000 HD 
HETATM   20  O   UNL     1      -9.728  10.763  68.807  1.00  0.00    -0.177 OA 
BRANCH  18  21
HETATM   21  C   UNL     1     -11.060   9.719  70.531  1.00  0.00    -0.321 C  
BRANCH  21  22
HETATM   22  N   UNL     1     -12.325   9.060  70.878  1.00  0.00    -0.476 NA 
HETATM   23  C   UNL     1     -12.191   7.686  71.408  1.00  0.00    -0.326 C  
HETATM   24  H   UNL     1     -12.957   9.067  70.077  1.00  0.00     0.000 HD 
HETATM   25  C   UNL     1     -13.620   7.148  71.622  1.00  0.00    -0.399 C  
HETATM   26  C   UNL     1     -11.471   7.669  72.767  1.00  0.00    -0.384 C  
HETATM   27  C   UNL     1     -11.470   6.759  70.416  1.00  0.00    -0.419 C  
ENDBRANCH  21  22
ENDBRANCH  18  21
ENDBRANCH  17  18
ENDBRANCH  16  17
ENDBRANCH  13  16
BRANCH  15  28
HETATM   28  C   UNL     1     -11.793  12.783  64.866  1.00  0.00    -0.379 C  
HETATM   29  O   UNL     1     -12.979  12.734  64.534  1.00  0.00    -0.730 OA 
HETATM   30  C   UNL     1     -10.762  12.035  64.065  1.00  0.00    -0.426 C  
ENDBRANCH  15  28
ENDBRANCH   8  10
ENDBRANCH   6   8
ENDBRANCH   3   6
ENDBRANCH   2   3
TORSDOF 11
ENDMDL
