MODEL       74
REMARK 921   NORMALIZED FREE ENERGY PREDICTED BY IDOCK:   -5.77 KCAL/MOL
REMARK 922        TOTAL FREE ENERGY PREDICTED BY IDOCK:  -10.14 KCAL/MOL
REMARK 923 INTER-LIGAND FREE ENERGY PREDICTED BY IDOCK:   -8.81 KCAL/MOL
REMARK 924 INTRA-LIGAND FREE ENERGY PREDICTED BY IDOCK:   -1.33 KCAL/MOL
REMARK 927      BINDING AFFINITY PREDICTED BY RF-SCORE:    0.00 PKD
ROOT
HETATM    1  C   UNL     1     -13.095  10.534  71.756  1.00  0.00    -0.464 C  
HETATM    2  O   UNL     1     -12.464   9.298  72.080  1.00  0.00    -0.370 OA 
ENDROOT
BRANCH   2   3
HETATM    3  C   UNL     1     -11.737   8.720  71.070  1.00  0.00    -0.282 A  
HETATM    4  C   UNL     1     -10.967   9.463  70.167  1.00  0.00    -0.282 A  
HETATM    5  C   UNL     1     -10.238   8.849  69.136  1.00  0.00    -0.206 A  
HETATM    6  C   UNL     1     -10.302   7.447  69.033  1.00  0.00    -0.210 A  
HETATM    7  C   UNL     1     -11.808   7.331  70.918  1.00  0.00    -0.316 A  
HETATM    8 CL   UNL     1      -9.409   6.614  67.808  1.00  0.00    -0.120 Cl 
HETATM    9  C   UNL     1     -11.083   6.692  69.912  1.00  0.00    -0.403 A  
HETATM   10 CL   UNL     1     -12.760   6.356  71.982  1.00  0.00    -0.223 Cl 
BRANCH   5  11
HETATM   11  N   UNL     1      -9.542   9.617  68.168  1.00  0.00    -0.143 NA 
HETATM   12  H   UNL     1      -9.631   9.298  67.204  1.00  0.00     0.000 HD 
BRANCH  11  13
HETATM   13  C   UNL     1      -8.738  10.772  68.359  1.00  0.00    -0.142 A  
HETATM   14  C   UNL     1      -6.767   9.421  69.090  1.00  0.00    -0.050 C  
HETATM   15  C   UNL     1      -7.384  10.657  68.737  1.00  0.00    -0.100 A  
HETATM   16  C   UNL     1      -6.618  11.806  68.785  1.00  0.00    -0.074 A  
HETATM   17  N   UNL     1      -7.075  13.034  68.472  1.00  0.00    -0.099 NA 
HETATM   18  N   UNL     1      -6.219   8.434  69.360  1.00  0.00    -0.037 NA 
HETATM   19  C   UNL     1      -8.358  13.155  68.109  1.00  0.00    -0.161 A  
HETATM   20  C   UNL     1      -8.795  14.421  67.760  1.00  0.00    -0.186 A  
HETATM   21  C   UNL     1     -10.101  14.664  67.326  1.00  0.00    -0.236 A  
HETATM   22  C   UNL     1      -9.253  12.064  68.049  1.00  0.00    -0.192 A  
HETATM   23  C   UNL     1     -11.010  13.607  67.288  1.00  0.00    -0.287 A  
HETATM   24  C   UNL     1     -10.590  12.326  67.664  1.00  0.00    -0.238 A  
BRANCH  21  25
HETATM   25  O   UNL     1     -10.533  15.927  67.025  1.00  0.00    -0.297 OA 
BRANCH  25  26
HETATM   26  C   UNL     1     -11.009  16.687  68.144  1.00  0.00    -0.327 C  
BRANCH  26  27
HETATM   27  C   UNL     1     -10.102  17.902  68.274  1.00  0.00    -0.376 C  
BRANCH  27  28
HETATM   28  C   UNL     1      -9.701  18.491  66.921  1.00  0.00    -0.322 C  
BRANCH  28  29
HETATM   29  N   UNL     1      -8.277  18.334  66.577  1.00  0.00    -0.263 NA 
HETATM   30  C   UNL     1      -7.686  19.548  65.972  1.00  0.00    -0.312 C  
HETATM   31  C   UNL     1      -7.529  20.736  66.950  1.00  0.00    -0.218 C  
HETATM   32  N   UNL     1      -6.768  20.420  68.175  1.00  0.00    -0.295 NA 
HETATM   33  C   UNL     1      -7.288  19.175  68.779  1.00  0.00    -0.337 C  
HETATM   34  C   UNL     1      -5.337  20.310  67.891  1.00  0.00    -0.199 C  
HETATM   35  C   UNL     1      -7.491  17.997  67.790  1.00  0.00    -0.211 C  
ENDBRANCH  28  29
ENDBRANCH  27  28
ENDBRANCH  26  27
ENDBRANCH  25  26
ENDBRANCH  21  25
BRANCH  23  36
HETATM   36  O   UNL     1     -12.335  13.688  66.946  1.00  0.00    -0.365 OA 
HETATM   37  C   UNL     1     -12.622  13.465  65.569  1.00  0.00    -0.465 C  
ENDBRANCH  23  36
ENDBRANCH  11  13
ENDBRANCH   5  11
ENDBRANCH   2   3
TORSDOF 9
ENDMDL
