MODEL       41
REMARK 921   NORMALIZED FREE ENERGY PREDICTED BY IDOCK:   -5.77 KCAL/MOL
REMARK 922        TOTAL FREE ENERGY PREDICTED BY IDOCK:  -11.35 KCAL/MOL
REMARK 923 INTER-LIGAND FREE ENERGY PREDICTED BY IDOCK:  -10.63 KCAL/MOL
REMARK 924 INTRA-LIGAND FREE ENERGY PREDICTED BY IDOCK:   -0.72 KCAL/MOL
REMARK 927      BINDING AFFINITY PREDICTED BY RF-SCORE:    0.00 PKD
ROOT
HETATM    1  C   UNL     1      -9.338  19.215  69.185  1.00  0.00    -0.187 C  
HETATM    2  O   UNL     1     -10.000  17.948  69.152  1.00  0.00    -0.303 OA 
ENDROOT
BRANCH   2   3
HETATM    3  C   UNL     1      -9.236  16.955  68.630  1.00  0.00    -0.265 C  
HETATM    4  O   UNL     1      -8.185  16.556  69.113  1.00  0.00    -0.233 OA 
BRANCH   3   5
HETATM    5  C   UNL     1      -9.830  16.446  67.366  1.00  0.00    -0.244 C  
HETATM    6  C   UNL     1      -9.829  17.197  66.233  1.00  0.00    -0.291 C  
HETATM    7  N   UNL     1     -10.434  16.706  65.085  1.00  0.00    -0.672 NA 
HETATM    8  C   UNL     1      -9.235  18.571  66.055  1.00  0.00     0.003 C  
HETATM    9  C   UNL     1     -11.230  15.581  65.038  1.00  0.00    -0.358 C  
HETATM   10  C   UNL     1     -12.015  15.375  63.764  1.00  0.00     0.402 C  
HETATM   11  C   UNL     1     -11.287  14.762  66.112  1.00  0.00    -0.330 C  
HETATM   12  C   UNL     1     -10.485  15.057  67.385  1.00  0.00    -0.257 C  
BRANCH  11  13
HETATM   13  C   UNL     1     -12.254  13.645  66.118  1.00  0.00    -0.444 C  
HETATM   14  O   UNL     1     -13.467  13.800  66.076  1.00  0.00    -0.011 OA 
BRANCH  13  15
HETATM   15  O   UNL     1     -11.620  12.446  66.202  1.00  0.00    -0.359 OA 
BRANCH  15  16
HETATM   16  C   UNL     1     -10.555  12.303  65.240  1.00  0.00    -0.287 C  
BRANCH  16  17
HETATM   17  C   UNL     1     -10.116  10.830  65.182  1.00  0.00    -0.299 C  
BRANCH  17  18
HETATM   18  N   UNL     1      -9.242  10.364  66.273  1.00  0.00    -0.163 NA 
HETATM   19  C   UNL     1     -11.001   9.282  67.780  1.00  0.00    -0.004 C  
HETATM   20  C   UNL     1      -9.915  10.373  67.591  1.00  0.00    -0.174 C  
HETATM   21  N   UNL     1     -10.514   7.897  67.552  1.00  0.00    -0.259 NA 
HETATM   22  C   UNL     1      -8.797   8.977  65.979  1.00  0.00    -0.175 C  
HETATM   23  C   UNL     1      -9.877   7.884  66.209  1.00  0.00    -0.069 C  
BRANCH  21  24
HETATM   24  C   UNL     1      -9.579   7.451  68.630  1.00  0.00    -0.146 C  
BRANCH  24  25
HETATM   25  C   UNL     1     -10.190   7.535  70.039  1.00  0.00    -0.215 A  
HETATM   26  C   UNL     1      -9.517   8.251  71.049  1.00  0.00    -0.197 A  
HETATM   27  C   UNL     1     -11.431   6.962  70.360  1.00  0.00    -0.387 A  
HETATM   28  C   UNL     1     -10.062   8.379  72.329  1.00  0.00    -0.382 A  
HETATM   29  C   UNL     1     -11.283   7.782  72.631  1.00  0.00    -0.438 A  
HETATM   30  C   UNL     1     -11.966   7.072  71.647  1.00  0.00    -0.365 A  
ENDBRANCH  24  25
BRANCH  24  31
HETATM   31  C   UNL     1      -8.964   6.074  68.335  1.00  0.00    -0.114 A  
HETATM   32  C   UNL     1      -7.910   3.480  68.064  1.00  0.00    -0.068 A  
HETATM   33  C   UNL     1      -7.055   4.565  68.239  1.00  0.00    -0.057 A  
HETATM   34  C   UNL     1      -9.811   4.968  68.136  1.00  0.00    -0.203 A  
HETATM   35  C   UNL     1      -7.577   5.852  68.378  1.00  0.00    -0.090 A  
HETATM   36  C   UNL     1      -9.287   3.681  68.011  1.00  0.00    -0.237 A  
ENDBRANCH  24  31
ENDBRANCH  21  24
ENDBRANCH  17  18
ENDBRANCH  16  17
ENDBRANCH  15  16
ENDBRANCH  13  15
ENDBRANCH  11  13
BRANCH  12  37
HETATM   37  C   UNL     1     -11.348  14.823  68.635  1.00  0.00    -0.305 A  
HETATM   38  C   UNL     1     -13.025  15.581  70.224  1.00  0.00    -0.141 A  
HETATM   39  O   UNL     1     -11.566  11.080  70.416  1.00  0.00    -0.308 OA 
HETATM   40  C   UNL     1     -11.392  13.541  69.221  1.00  0.00    -0.317 A  
HETATM   41  O   UNL     1     -13.076  11.774  71.847  1.00  0.00    -0.468 OA 
HETATM   42  C   UNL     1     -12.253  13.294  70.298  1.00  0.00    -0.321 A  
HETATM   43  C   UNL     1     -13.078  14.308  70.796  1.00  0.00    -0.321 A  
HETATM   44  N   UNL     1     -12.302  11.952  70.895  1.00  0.00    -0.356 N  
HETATM   45  C   UNL     1     -12.159  15.840  69.160  1.00  0.00    -0.217 A  
ENDBRANCH  12  37
ENDBRANCH   3   5
ENDBRANCH   2   3
TORSDOF 11
ENDMDL
