MODEL      207
REMARK 921   NORMALIZED FREE ENERGY PREDICTED BY IDOCK:    1.07 KCAL/MOL
REMARK 922        TOTAL FREE ENERGY PREDICTED BY IDOCK:   -0.44 KCAL/MOL
REMARK 923 INTER-LIGAND FREE ENERGY PREDICTED BY IDOCK:   -3.00 KCAL/MOL
REMARK 924 INTRA-LIGAND FREE ENERGY PREDICTED BY IDOCK:    2.56 KCAL/MOL
REMARK 927      BINDING AFFINITY PREDICTED BY RF-SCORE:    0.00 PKD
ROOT
HETATM    1  C   UNL     1      -7.613   3.876  70.244  1.00  0.00    -0.045 C  
HETATM    2  C   UNL     1      -7.538   3.084  68.946  1.00  0.00    -0.048 C  
ENDROOT
BRANCH   2   3
HETATM    3  C   UNL     1      -8.878   3.128  68.217  1.00  0.00    -0.163 C  
BRANCH   3   4
HETATM    4  C   UNL     1      -9.591   4.474  68.381  1.00  0.00    -0.207 C  
HETATM    5  C   UNL     1      -8.634   5.588  68.853  1.00  0.00    -0.100 C  
HETATM    6  C   UNL     1      -7.410   5.785  67.924  1.00  0.00    -0.077 C  
HETATM    7  C   UNL     1      -9.405   6.900  69.098  1.00  0.00    -0.140 C  
HETATM    8  C   UNL     1      -7.741   6.208  66.498  1.00  0.00    -0.103 C  
BRANCH   7   9
HETATM    9  O   UNL     1      -8.470   7.884  69.566  1.00  0.00    -0.129 OA 
BRANCH   9  10
HETATM   10  C   UNL     1      -8.932   8.987  70.196  1.00  0.00    -0.184 C  
HETATM   11  O   UNL     1      -8.569   9.387  71.291  1.00  0.00    -0.299 OA 
BRANCH  10  12
HETATM   12  C   UNL     1      -9.783   9.781  69.265  1.00  0.00    -0.204 C  
HETATM   13  C   UNL     1      -9.334  10.608  68.278  1.00  0.00    -0.156 C  
BRANCH  12  14
HETATM   14  C   UNL     1     -11.264   9.729  69.604  1.00  0.00    -0.178 C  
HETATM   15  H1  UNL     1     -13.486   9.650  70.113  1.00  0.00     0.000 HD 
HETATM   16  N   UNL     1     -12.493   9.685  69.885  1.00  0.00    -0.150 NA 
HETATM   17  H2  UNL     1     -13.117   8.897  69.714  1.00  0.00     0.000 HD 
ENDBRANCH  12  14
BRANCH  13  18
HETATM   18  C   UNL     1      -7.897  10.649  67.900  1.00  0.00    -0.105 A  
HETATM   19  C   UNL     1      -7.388  11.736  67.179  1.00  0.00    -0.146 A  
HETATM   20  C   UNL     1      -7.039   9.588  68.221  1.00  0.00    -0.075 A  
HETATM   21  C   UNL     1      -5.726   9.568  67.747  1.00  0.00    -0.041 A  
HETATM   22  C   UNL     1      -5.245  10.628  66.985  1.00  0.00    -0.043 A  
HETATM   23  C   UNL     1      -6.066  11.724  66.726  1.00  0.00    -0.102 A  
ENDBRANCH  13  18
BRANCH  13  24
HETATM   24  C   UNL     1     -10.292  11.539  67.616  1.00  0.00    -0.209 A  
HETATM   25  C   UNL     1     -11.465  13.671  67.606  1.00  0.00    -0.357 A  
HETATM   26  C   UNL     1     -10.557  12.789  68.198  1.00  0.00    -0.242 A  
HETATM   27  C   UNL     1     -12.093  13.334  66.412  1.00  0.00    -0.394 A  
HETATM   28  C   UNL     1     -11.844  12.090  65.828  1.00  0.00    -0.236 A  
HETATM   29  C   UNL     1     -10.946  11.193  66.430  1.00  0.00    -0.248 A  
BRANCH  27  30
HETATM   30  O   UNL     1     -12.980  14.266  65.938  1.00  0.00    -0.380 OA 
HETATM   31  C   UNL     1     -12.593  15.628  66.073  1.00  0.00     1.758 C  
ENDBRANCH  27  30
ENDBRANCH  13  24
ENDBRANCH  10  12
ENDBRANCH   9  10
ENDBRANCH   7   9
ENDBRANCH   3   4
ENDBRANCH   2   3
TORSDOF 9
ENDMDL
