MODEL       60
REMARK 921   NORMALIZED FREE ENERGY PREDICTED BY IDOCK:   -5.35 KCAL/MOL
REMARK 922        TOTAL FREE ENERGY PREDICTED BY IDOCK:   -6.92 KCAL/MOL
REMARK 923 INTER-LIGAND FREE ENERGY PREDICTED BY IDOCK:   -6.09 KCAL/MOL
REMARK 924 INTRA-LIGAND FREE ENERGY PREDICTED BY IDOCK:   -0.83 KCAL/MOL
REMARK 927      BINDING AFFINITY PREDICTED BY RF-SCORE:    0.00 PKD
ROOT
HETATM    1  C   UNL     1      -9.856  18.146  68.688  1.00  0.00    -0.389 C  
HETATM    2  C   UNL     1      -9.683  17.956  67.180  1.00  0.00    -0.289 C  
HETATM    3  O   UNL     1     -10.790  17.191  66.649  1.00  0.00    -0.137 OA 
HETATM    4  C   UNL     1      -9.836  19.351  66.529  1.00  0.00    -0.386 C  
HETATM    5  C   UNL     1      -8.285  17.462  66.786  1.00  0.00    -0.279 C  
HETATM    6  O   UNL     1     -10.799  19.399  65.572  1.00  0.00    -0.421 OA 
HETATM    7  O   UNL     1      -9.160  20.331  66.812  1.00  0.00    -0.338 OA 
ENDROOT
BRANCH   3   8
HETATM    8  C   UNL     1     -10.732  15.838  66.501  1.00  0.00    -0.283 A  
HETATM    9  C   UNL     1     -10.864  14.894  67.515  1.00  0.00    -0.292 A  
HETATM   10  C   UNL     1     -10.715  13.533  67.227  1.00  0.00    -0.272 A  
HETATM   11  C   UNL     1     -10.458  13.111  65.919  1.00  0.00    -0.288 A  
HETATM   12  C   UNL     1     -10.565  15.407  65.181  1.00  0.00    -0.458 A  
HETATM   13  C   UNL     1     -10.436  14.049  64.885  1.00  0.00    -0.453 A  
BRANCH  11  14
HETATM   14  C   UNL     1     -10.228  11.666  65.671  1.00  0.00    -0.243 C  
HETATM   15  O   UNL     1     -10.455  11.216  64.551  1.00  0.00    -0.318 OA 
BRANCH  14  16
HETATM   16  C   UNL     1      -9.777  10.744  66.751  1.00  0.00    -0.221 A  
HETATM   17  C   UNL     1      -8.436  10.805  67.159  1.00  0.00    -0.126 A  
HETATM   18  C   UNL     1      -7.956   9.930  68.135  1.00  0.00    -0.100 A  
HETATM   19  C   UNL     1      -8.811   8.986  68.703  1.00  0.00    -0.137 A  
HETATM   20  C   UNL     1     -10.143   8.913  68.303  1.00  0.00    -0.219 A  
HETATM   21 CL   UNL     1      -8.214   7.891  69.887  1.00  0.00    -0.119 Cl 
HETATM   22  C   UNL     1     -10.625   9.782  67.319  1.00  0.00    -0.320 A  
ENDBRANCH  14  16
ENDBRANCH  11  14
ENDBRANCH   3   8
TORSDOF 3
ENDMDL
