MODEL      199
REMARK 921   NORMALIZED FREE ENERGY PREDICTED BY IDOCK:   -4.50 KCAL/MOL
REMARK 922        TOTAL FREE ENERGY PREDICTED BY IDOCK:  -14.45 KCAL/MOL
REMARK 923 INTER-LIGAND FREE ENERGY PREDICTED BY IDOCK:  -11.26 KCAL/MOL
REMARK 924 INTRA-LIGAND FREE ENERGY PREDICTED BY IDOCK:   -3.20 KCAL/MOL
REMARK 927      BINDING AFFINITY PREDICTED BY RF-SCORE:    0.00 PKD
ROOT
HETATM    1  O   UNL     1     -11.136  19.468  66.292  1.00  0.00    -0.265 OA 
HETATM    2  C   UNL     1     -10.519  19.172  67.306  1.00  0.00    -0.456 C  
ENDROOT
BRANCH   2   3
HETATM    3  C   UNL     1      -9.467  20.046  67.946  1.00  0.00    -0.467 C  
BRANCH   3   4
HETATM    4  C   UNL     1      -8.411  19.228  68.691  1.00  0.00    -0.407 C  
BRANCH   4   5
HETATM    5  C   UNL     1      -6.994  19.766  68.464  1.00  0.00    -0.345 C  
BRANCH   5   6
HETATM    6  C   UNL     1      -6.611  19.756  67.006  1.00  0.00    -0.215 A  
HETATM    7  C   UNL     1      -6.445  18.540  66.327  1.00  0.00    -0.238 A  
HETATM    8  C   UNL     1      -5.882  19.727  64.298  1.00  0.00    -0.310 A  
HETATM    9  C   UNL     1      -6.084  18.527  64.979  1.00  0.00    -0.218 A  
HETATM   10  C   UNL     1      -6.401  20.955  66.314  1.00  0.00    -0.305 A  
HETATM   11  C   UNL     1      -6.040  20.940  64.966  1.00  0.00    -0.291 A  
ENDBRANCH   5   6
ENDBRANCH   4   5
ENDBRANCH   3   4
ENDBRANCH   2   3
BRANCH   2  12
HETATM   12  O   UNL     1     -10.675  18.019  68.014  1.00  0.00    -0.376 OA 
BRANCH  12  13
HETATM   13  C   UNL     1     -10.684  16.794  67.256  1.00  0.00    -0.213 C  
BRANCH  13  14
HETATM   14  C   UNL     1     -10.404  15.606  68.181  1.00  0.00    -0.246 C  
BRANCH  14  15
HETATM   15  O   UNL     1      -9.110  15.056  67.859  1.00  0.00    -0.176 OA 
BRANCH  15  16
HETATM   16  C   UNL     1      -9.090  14.105  66.887  1.00  0.00    -0.245 C  
HETATM   17  O   UNL     1      -9.799  14.087  65.892  1.00  0.00    -0.304 OA 
BRANCH  16  18
HETATM   18  C   UNL     1      -8.076  13.042  67.230  1.00  0.00    -0.164 C  
BRANCH  18  19
HETATM   19  C   UNL     1      -8.718  11.853  67.936  1.00  0.00    -0.167 C  
BRANCH  19  20
HETATM   20  C   UNL     1      -9.159  10.748  66.970  1.00  0.00    -0.155 C  
BRANCH  20  21
HETATM   21  C   UNL     1      -9.252   9.436  67.707  1.00  0.00    -0.141 A  
HETATM   22  C   UNL     1      -9.565   7.110  69.232  1.00  0.00    -0.155 A  
HETATM   23  C   UNL     1      -8.343   9.131  68.727  1.00  0.00    -0.121 A  
HETATM   24  C   UNL     1     -10.307   8.553  67.444  1.00  0.00    -0.356 A  
HETATM   25  C   UNL     1      -8.500   7.970  69.486  1.00  0.00    -0.131 A  
HETATM   26  C   UNL     1     -10.464   7.395  68.206  1.00  0.00    -0.231 A  
ENDBRANCH  20  21
ENDBRANCH  19  20
ENDBRANCH  18  19
ENDBRANCH  16  18
ENDBRANCH  15  16
ENDBRANCH  14  15
BRANCH  14  27
HETATM   27  C   UNL     1     -11.444  14.497  67.985  1.00  0.00    -0.321 C  
BRANCH  27  28
HETATM   28  O   UNL     1     -11.768  13.855  69.227  1.00  0.00    -0.287 OA 
BRANCH  28  29
HETATM   29  C   UNL     1     -12.016  12.518  69.130  1.00  0.00    -0.236 C  
HETATM   30  O   UNL     1     -12.153  11.907  68.081  1.00  0.00    -0.516 OA 
BRANCH  29  31
HETATM   31  C   UNL     1     -12.088  11.903  70.505  1.00  0.00    -0.422 C  
BRANCH  31  32
HETATM   32  C   UNL     1     -11.518  10.489  70.523  1.00  0.00    -0.433 C  
BRANCH  32  33
HETATM   33  C   UNL     1     -12.547   9.437  70.957  1.00  0.00    -0.291 C  
BRANCH  33  34
HETATM   34  C   UNL     1     -11.867   8.321  71.708  1.00  0.00    -0.357 A  
HETATM   35  C   UNL     1     -10.493   6.224  72.956  1.00  0.00    -0.249 A  
HETATM   36  C   UNL     1     -10.705   8.577  72.450  1.00  0.00    -0.376 A  
HETATM   37  C   UNL     1     -10.022   7.531  73.071  1.00  0.00    -0.321 A  
HETATM   38  C   UNL     1     -11.654   5.963  72.230  1.00  0.00    -0.338 A  
HETATM   39  C   UNL     1     -12.339   7.006  71.609  1.00  0.00    -0.407 A  
ENDBRANCH  33  34
ENDBRANCH  32  33
ENDBRANCH  31  32
ENDBRANCH  29  31
ENDBRANCH  28  29
ENDBRANCH  27  28
ENDBRANCH  14  27
ENDBRANCH  13  14
ENDBRANCH  12  13
ENDBRANCH   2  12
TORSDOF 20
ENDMDL
