MODEL       12
REMARK 921   NORMALIZED FREE ENERGY PREDICTED BY IDOCK:   -7.06 KCAL/MOL
REMARK 922        TOTAL FREE ENERGY PREDICTED BY IDOCK:  -11.52 KCAL/MOL
REMARK 923 INTER-LIGAND FREE ENERGY PREDICTED BY IDOCK:  -10.50 KCAL/MOL
REMARK 924 INTRA-LIGAND FREE ENERGY PREDICTED BY IDOCK:   -1.02 KCAL/MOL
REMARK 927      BINDING AFFINITY PREDICTED BY RF-SCORE:    0.00 PKD
ROOT
HETATM    1  C   UNL     1     -11.914  14.029  68.358  1.00  0.00    -0.343 C  
HETATM    2  S   UNL     1     -11.021  15.100  69.451  1.00  0.00    -0.280 SA 
HETATM    3  C   UNL     1     -10.196  16.252  68.325  1.00  0.00    -0.253 C  
HETATM    4  C   UNL     1     -10.533  16.194  66.853  1.00  0.00    -0.300 C  
HETATM    5  O   UNL     1     -12.314  12.338  65.637  1.00  0.00    -0.619 OA 
HETATM    6  CA  UNL     1     -11.234  15.203  66.250  1.00  0.00    -0.273 C  
HETATM    7  CA  UNL     1     -11.824  12.441  68.161  1.00  0.00    -0.315 C  
HETATM    8  N   UNL     1     -11.638  14.116  66.955  1.00  0.00    -0.362 N  
HETATM    9  C   UNL     1     -11.492  15.278  64.770  1.00  0.00    -0.363 C  
HETATM   10  OXT UNL     1     -11.617  16.346  64.185  1.00  0.00    -0.962 OA 
HETATM   11  C   UNL     1     -12.093  12.872  66.683  1.00  0.00    -0.289 C  
HETATM   12  O   UNL     1     -11.594  14.127  64.088  1.00  0.00    -0.332 OA 
ENDROOT
BRANCH   4  13
HETATM   13  C   UNL     1      -9.825  17.321  66.087  1.00  0.00    -0.253 C  
BRANCH  13  14
HETATM   14  S   UNL     1      -8.032  17.073  66.218  1.00  0.00    -0.272 SA 
BRANCH  14  15
HETATM   15  C   UNL     1      -7.466  18.698  66.210  1.00  0.00    -0.260 A  
HETATM   16  N   UNL     1      -7.009  19.378  65.184  1.00  0.00    -0.419 NA 
HETATM   17  C   UNL     1      -7.701  19.155  68.687  1.00  0.00    -0.352 C  
HETATM   18  N   UNL     1      -6.538  20.564  65.706  1.00  0.00    -0.235 NA 
HETATM   19  N   UNL     1      -7.317  19.451  67.335  1.00  0.00    -0.224 NA 
HETATM   20  N   UNL     1      -6.718  20.614  67.021  1.00  0.00    -0.263 NA 
ENDBRANCH  14  15
ENDBRANCH  13  14
ENDBRANCH   4  13
BRANCH   7  21
HETATM   21  N   UNL     1     -10.684  11.414  68.202  1.00  0.00    -0.191 N  
HETATM   22  H   UNL     1     -10.010  11.559  67.450  1.00  0.00     0.000 HD 
HETATM   23  O   UNL     1      -9.291   9.723  68.765  1.00  0.00    -0.143 OA 
HETATM   24  C   UNL     1     -10.339  10.319  69.022  1.00  0.00    -0.211 C  
BRANCH  24  25
HETATM   25  C   UNL     1     -11.270   9.705  70.065  1.00  0.00    -0.231 C  
BRANCH  25  26
HETATM   26  C   UNL     1     -10.831   8.606  70.959  1.00  0.00    -0.247 A  
HETATM   27  H2  UNL     1     -11.442   5.105  73.309  1.00  0.00     0.000 HD 
HETATM   28  H1  UNL     1     -12.401   5.102  71.830  1.00  0.00     0.000 HD 
HETATM   29  C   UNL     1      -9.934   8.786  72.008  1.00  0.00    -0.321 A  
HETATM   30  N   UNL     1     -11.445   7.357  70.980  1.00  0.00    -0.275 NA 
HETATM   31  N   UNL     1     -11.705   5.547  72.427  1.00  0.00    -0.189 NA 
HETATM   32  S   UNL     1      -9.961   7.450  73.075  1.00  0.00    -0.280 SA 
HETATM   33  C   UNL     1     -11.128   6.703  72.073  1.00  0.00    -0.255 A  
ENDBRANCH  25  26
BRANCH  25  34
HETATM   34  N   UNL     1     -12.560   9.887  70.155  1.00  0.00    -0.497 NA 
HETATM   35  H   UNL     1     -13.134   9.540  69.386  1.00  0.00     0.000 HD 
BRANCH  34  36
HETATM   36  O   UNL     1     -13.225  10.520  71.214  1.00  0.00    -0.365 OA 
HETATM   37  C   UNL     1     -12.820  11.798  71.629  1.00  0.00    -0.328 C  
ENDBRANCH  34  36
ENDBRANCH  25  34
ENDBRANCH  24  25
ENDBRANCH   7  21
TORSDOF 8
ENDMDL
