MODEL      247
REMARK 921   NORMALIZED FREE ENERGY PREDICTED BY IDOCK:   -2.02 KCAL/MOL
REMARK 922        TOTAL FREE ENERGY PREDICTED BY IDOCK:   -4.23 KCAL/MOL
REMARK 923 INTER-LIGAND FREE ENERGY PREDICTED BY IDOCK:   -3.74 KCAL/MOL
REMARK 924 INTRA-LIGAND FREE ENERGY PREDICTED BY IDOCK:   -0.49 KCAL/MOL
REMARK 927      BINDING AFFINITY PREDICTED BY RF-SCORE:    0.00 PKD
ROOT
HETATM    1  C   UNL     1     -11.168  15.768  67.922  1.00  0.00    -0.313 C  
HETATM    2  C   UNL     1     -11.549  14.316  67.691  1.00  0.00    -0.396 C  
ENDROOT
BRANCH   2   3
HETATM    3  C   UNL     1     -11.582  13.538  69.001  1.00  0.00    -0.356 C  
BRANCH   3   4
HETATM    4  C   UNL     1     -10.969  12.168  68.824  1.00  0.00    -0.232 C  
HETATM    5  O   UNL     1     -11.619  11.163  69.099  1.00  0.00    -0.266 OA 
HETATM    6  N   UNL     1      -9.688  12.202  68.291  1.00  0.00    -0.214 N  
HETATM    7  H   UNL     1      -9.298  13.119  68.073  1.00  0.00     0.000 HD 
BRANCH   6   8
HETATM    8  C   UNL     1      -8.877  11.078  68.023  1.00  0.00    -0.138 A  
HETATM    9  C   UNL     1      -8.389  10.242  69.023  1.00  0.00    -0.148 A  
HETATM   10  C   UNL     1      -7.667   9.090  68.705  1.00  0.00    -0.096 A  
HETATM   11  C   UNL     1      -7.400   8.745  67.376  1.00  0.00    -0.081 A  
HETATM   12  C   UNL     1      -7.818   9.621  66.362  1.00  0.00    -0.101 A  
HETATM   13  C   UNL     1      -8.557  10.780  66.696  1.00  0.00    -0.143 A  
BRANCH  11  14
HETATM   14  O   UNL     1      -6.791   7.568  67.021  1.00  0.00    -0.066 OA 
BRANCH  14  15
HETATM   15  C   UNL     1      -7.250   6.372  67.673  1.00  0.00    -0.086 C  
BRANCH  15  16
HETATM   16  C   UNL     1      -7.502   5.282  66.621  1.00  0.00    -0.087 C  
HETATM   17  H   UNL     1      -6.581   3.664  66.000  1.00  0.00     0.000 HD 
HETATM   18  O   UNL     1      -6.424   4.338  66.650  1.00  0.00    -0.036 OA 
BRANCH  16  19
HETATM   19  C   UNL     1      -8.830   4.530  66.851  1.00  0.00    -0.112 C  
BRANCH  19  20
HETATM   20  N   UNL     1      -8.639   3.291  67.613  1.00  0.00    -0.097 NA 
HETATM   21  H   UNL     1      -7.967   2.682  67.147  1.00  0.00     0.000 HD 
BRANCH  20  22
HETATM   22  C   UNL     1      -8.254   3.514  69.013  1.00  0.00    -0.060 C  
HETATM   23  C   UNL     1      -9.453   3.854  69.909  1.00  0.00    -0.267 C  
HETATM   24  C   UNL     1      -7.592   2.235  69.528  1.00  0.00    -0.043 C  
ENDBRANCH  20  22
ENDBRANCH  19  20
ENDBRANCH  16  19
ENDBRANCH  15  16
ENDBRANCH  14  15
ENDBRANCH  11  14
BRANCH  12  25
HETATM   25  C   UNL     1      -7.587   9.394  64.903  1.00  0.00    -0.110 C  
HETATM   26  C   UNL     1      -6.342   9.894  64.220  1.00  0.00    -0.125 C  
HETATM   27  O   UNL     1      -8.463   8.823  64.253  1.00  0.00    -0.167 OA 
ENDBRANCH  12  25
ENDBRANCH   6   8
ENDBRANCH   3   4
ENDBRANCH   2   3
TORSDOF 10
ENDMDL
