MODEL        4
REMARK 921   NORMALIZED FREE ENERGY PREDICTED BY IDOCK:   -6.77 KCAL/MOL
REMARK 922        TOTAL FREE ENERGY PREDICTED BY IDOCK:  -14.16 KCAL/MOL
REMARK 923 INTER-LIGAND FREE ENERGY PREDICTED BY IDOCK:  -12.63 KCAL/MOL
REMARK 924 INTRA-LIGAND FREE ENERGY PREDICTED BY IDOCK:   -1.53 KCAL/MOL
REMARK 927      BINDING AFFINITY PREDICTED BY RF-SCORE:    0.00 PKD
ROOT
HETATM    1  C   UNL     1     -10.933  10.560  68.471  1.00  0.00    -0.252 C  
HETATM    2  C   UNL     1     -10.795   9.069  68.169  1.00  0.00    -0.085 C  
ENDROOT
BRANCH   1   3
HETATM    3  C   UNL     1     -11.292  10.862  69.920  1.00  0.00    -0.305 C  
BRANCH   3   4
HETATM    4  N   UNL     1     -11.554   9.723  70.758  1.00  0.00    -0.314 NA 
HETATM    5  C   UNL     1     -10.571   9.064  71.429  1.00  0.00    -0.323 A  
HETATM    6  N   UNL     1      -9.092   7.484  72.971  1.00  0.00    -0.156 NA 
HETATM    7  C   UNL     1     -12.755   9.211  71.165  1.00  0.00    -0.213 A  
HETATM    8  N   UNL     1     -10.963   6.341  73.843  1.00  0.00    -0.371 NA 
HETATM    9  N   UNL     1      -9.248   9.279  71.356  1.00  0.00    -0.296 NA 
HETATM   10  C   UNL     1     -10.434   7.326  73.017  1.00  0.00    -0.310 A  
HETATM   11  N   UNL     1     -12.600   8.229  72.022  1.00  0.00    -0.336 NA 
HETATM   12  C   UNL     1      -8.583   8.444  72.168  1.00  0.00    -0.192 A  
HETATM   13  C   UNL     1     -11.237   8.143  72.213  1.00  0.00    -0.359 A  
HETATM   14  H1  UNL     1     -10.378   5.747  74.429  1.00  0.00     0.000 HD 
HETATM   15  H2  UNL     1     -11.541   5.732  73.265  1.00  0.00     0.000 HD 
ENDBRANCH   3   4
ENDBRANCH   1   3
BRANCH   1  16
HETATM   16  O   UNL     1     -11.843  11.139  67.512  1.00  0.00    -0.591 OA 
BRANCH  16  17
HETATM   17  C   UNL     1     -11.259  11.581  66.262  1.00  0.00    -0.222 C  
HETATM   18  O   UNL     1     -13.035  12.629  65.045  1.00  0.00    -0.812 OA 
HETATM   19  O   UNL     1     -12.219  13.671  67.305  1.00  0.00    -0.366 OA 
HETATM   20  P   UNL     1     -11.831  13.245  65.761  1.00  0.00    -0.436 P  
HETATM   21  O   UNL     1     -12.371  14.819  65.286  1.00  0.00    -0.253 OA 
BRANCH  19  22
HETATM   22  C   UNL     1     -11.280  14.364  68.098  1.00  0.00    -0.281 C  
BRANCH  22  23
HETATM   23  O   UNL     1     -11.897  15.392  68.882  1.00  0.00    -0.349 OA 
BRANCH  23  24
HETATM   24  C   UNL     1     -11.299  15.608  70.081  1.00  0.00    -0.344 C  
HETATM   25  O   UNL     1     -10.104  15.487  70.314  1.00  0.00    -0.270 OA 
BRANCH  24  26
HETATM   26  O   UNL     1     -12.244  15.961  70.993  1.00  0.00    -0.404 OA 
BRANCH  26  27
HETATM   27  C   UNL     1     -12.558  14.952  71.978  1.00  0.00    -0.326 C  
HETATM   28  C   UNL     1     -11.925  15.343  73.309  1.00  0.00    -0.566 C  
HETATM   29  C   UNL     1     -14.072  14.843  72.123  1.00  0.00    -0.616 C  
ENDBRANCH  26  27
ENDBRANCH  24  26
ENDBRANCH  23  24
ENDBRANCH  22  23
ENDBRANCH  19  22
BRANCH  21  30
HETATM   30  C   UNL     1     -11.539  15.410  64.311  1.00  0.00    -0.191 C  
BRANCH  30  31
HETATM   31  O   UNL     1     -11.113  16.712  64.702  1.00  0.00    -0.763 OA 
BRANCH  31  32
HETATM   32  C   UNL     1     -10.217  16.718  65.717  1.00  0.00    -0.291 C  
HETATM   33  O   UNL     1      -9.143  16.132  65.725  1.00  0.00    -0.398 OA 
BRANCH  32  34
HETATM   34  O   UNL     1     -10.690  17.534  66.691  1.00  0.00    -0.237 OA 
BRANCH  34  35
HETATM   35  C   UNL     1      -9.878  18.679  67.017  1.00  0.00    -0.327 C  
HETATM   36  C   UNL     1      -9.972  18.893  68.525  1.00  0.00    -0.463 C  
HETATM   37  C   UNL     1     -10.382  19.917  66.283  1.00  0.00    -0.608 C  
ENDBRANCH  34  35
ENDBRANCH  32  34
ENDBRANCH  31  32
ENDBRANCH  30  31
ENDBRANCH  21  30
ENDBRANCH  16  17
ENDBRANCH   1  16
TORSDOF 14
ENDMDL
