MODEL       10
REMARK 921   NORMALIZED FREE ENERGY PREDICTED BY IDOCK:   -7.04 KCAL/MOL
REMARK 922        TOTAL FREE ENERGY PREDICTED BY IDOCK:  -14.19 KCAL/MOL
REMARK 923 INTER-LIGAND FREE ENERGY PREDICTED BY IDOCK:  -12.73 KCAL/MOL
REMARK 924 INTRA-LIGAND FREE ENERGY PREDICTED BY IDOCK:   -1.46 KCAL/MOL
REMARK 927      BINDING AFFINITY PREDICTED BY RF-SCORE:    0.00 PKD
ROOT
HETATM    1  C   UNL     1     -11.157  13.493  65.162  1.00  0.00    -0.326 C  
HETATM    2  C   UNL     1     -10.092  12.896  64.261  1.00  0.00    -0.251 C  
HETATM    3  C   UNL     1     -10.811  11.813  63.480  1.00  0.00    -0.426 C  
HETATM    4  O   UNL     1     -12.194  11.858  63.824  1.00  0.00    -0.458 OA 
HETATM    5  C   UNL     1     -12.446  13.088  64.489  1.00  0.00    -0.363 C  
HETATM    6  O   UNL     1     -12.754  14.131  63.566  1.00  0.00    -0.794 OA 
HETATM    7  C   UNL     1     -12.243  15.351  64.112  1.00  0.00    -0.057 C  
HETATM    8  C   UNL     1     -11.246  15.007  65.219  1.00  0.00    -0.367 C  
ENDROOT
BRANCH   8   9
HETATM    9  O   UNL     1      -9.989  15.635  64.915  1.00  0.00    -0.331 OA 
BRANCH   9  10
HETATM   10  C   UNL     1      -9.234  16.010  65.977  1.00  0.00    -0.340 C  
HETATM   11  O   UNL     1      -8.026  15.870  66.062  1.00  0.00     0.083 OA 
HETATM   12  N   UNL     1     -10.065  16.477  66.954  1.00  0.00    -0.273 N  
HETATM   13  H   UNL     1     -11.044  16.638  66.719  1.00  0.00     0.000 HD 
BRANCH  12  14
HETATM   14  C   UNL     1      -9.622  16.761  68.328  1.00  0.00    -0.244 C  
BRANCH  14  15
HETATM   15  C   UNL     1      -9.818  18.268  68.696  1.00  0.00    -0.400 C  
BRANCH  15  16
HETATM   16  C   UNL     1      -8.687  19.209  68.314  1.00  0.00    -0.375 A  
HETATM   17  C   UNL     1      -8.736  19.931  67.115  1.00  0.00    -0.397 A  
HETATM   18  C   UNL     1      -7.555  19.347  69.132  1.00  0.00    -0.316 A  
HETATM   19  C   UNL     1      -7.679  20.765  66.741  1.00  0.00    -0.160 A  
HETATM   20  C   UNL     1      -6.564  20.897  67.567  1.00  0.00    -0.413 A  
HETATM   21  C   UNL     1      -6.505  20.193  68.767  1.00  0.00    -0.345 A  
ENDBRANCH  15  16
ENDBRANCH  14  15
BRANCH  14  22
HETATM   22  C   UNL     1     -10.286  15.851  69.405  1.00  0.00    -0.262 C  
HETATM   23  O   UNL     1      -9.300  15.324  70.304  1.00  0.00    -0.322 OA 
HETATM   24  H   UNL     1      -9.705  14.769  70.961  1.00  0.00     0.000 HD 
BRANCH  22  25
HETATM   25  C   UNL     1     -11.243  14.741  68.924  1.00  0.00    -0.266 C  
BRANCH  25  26
HETATM   26  N   UNL     1     -11.447  13.498  69.785  1.00  0.00    -0.219 N  
BRANCH  26  27
HETATM   27  C   UNL     1     -12.813  13.523  70.469  1.00  0.00    -0.061 C  
HETATM   28  C   UNL     1     -12.966  14.254  71.819  1.00  0.00    -0.430 C  
HETATM   29  C   UNL     1     -12.687  15.754  71.752  1.00  0.00    -0.519 C  
HETATM   30  C   UNL     1     -14.408  14.074  72.330  1.00  0.00    -0.520 C  
ENDBRANCH  26  27
BRANCH  26  31
HETATM   31  S   UNL     1     -11.232  12.061  68.785  1.00  0.00    -0.286 S  
HETATM   32  O   UNL     1     -12.347  11.957  67.877  1.00  0.00    -0.367 OA 
HETATM   33  O   UNL     1      -9.863  12.100  68.306  1.00  0.00    -0.204 OA 
BRANCH  31  34
HETATM   34  C   UNL     1     -11.356  10.692  69.934  1.00  0.00    -0.313 A  
HETATM   35  C   UNL     1     -12.661   9.346  71.460  1.00  0.00    -0.444 A  
HETATM   36  C   UNL     1     -12.587  10.375  70.509  1.00  0.00    -0.384 A  
HETATM   37  C   UNL     1     -11.515   8.659  71.877  1.00  0.00    -0.348 A  
HETATM   38  N   UNL     1     -11.616   7.571  72.744  1.00  0.00    -0.557 NA 
HETATM   39  C   UNL     1     -10.308   8.933  71.230  1.00  0.00    -0.355 A  
HETATM   40  H1  UNL     1     -10.781   7.070  73.048  1.00  0.00     0.000 HD 
HETATM   41  C   UNL     1     -10.217   9.953  70.273  1.00  0.00    -0.322 A  
HETATM   42  H2  UNL     1     -12.261   6.895  72.334  1.00  0.00     0.000 HD 
ENDBRANCH  31  34
ENDBRANCH  26  31
ENDBRANCH  25  26
ENDBRANCH  22  25
ENDBRANCH  14  22
ENDBRANCH  12  14
ENDBRANCH   9  10
ENDBRANCH   8   9
TORSDOF 11
ENDMDL
