MODEL      275
REMARK 921   NORMALIZED FREE ENERGY PREDICTED BY IDOCK:   -3.96 KCAL/MOL
REMARK 922        TOTAL FREE ENERGY PREDICTED BY IDOCK:   -5.87 KCAL/MOL
REMARK 923 INTER-LIGAND FREE ENERGY PREDICTED BY IDOCK:   -5.43 KCAL/MOL
REMARK 924 INTRA-LIGAND FREE ENERGY PREDICTED BY IDOCK:   -0.44 KCAL/MOL
REMARK 927      BINDING AFFINITY PREDICTED BY RF-SCORE:    0.00 PKD
ROOT
HETATM    1  O   UNL     1     -13.039  15.026  65.050  1.00  0.00    -0.023 OA 
HETATM    2  C   UNL     1     -12.480  13.816  65.269  1.00  0.00    -0.480 C  
HETATM    3  C   UNL     1     -11.311  13.834  66.189  1.00  0.00    -0.320 A  
HETATM    4  O   UNL     1     -12.864  12.798  64.715  1.00  0.00    -0.707 OA 
HETATM    5  C   UNL     1     -10.356  12.811  66.048  1.00  0.00    -0.291 A  
HETATM    6  C   UNL     1      -9.245  12.738  66.902  1.00  0.00    -0.229 A  
HETATM    7  C   UNL     1      -9.106  13.721  67.893  1.00  0.00    -0.193 A  
HETATM    8  O   UNL     1     -12.064  15.804  67.333  1.00  0.00     0.155 OA 
HETATM    9  C   UNL     1     -11.147  14.795  67.193  1.00  0.00    -0.333 A  
HETATM   10  H   UNL     1     -11.953  16.456  68.015  1.00  0.00     0.000 HD 
HETATM   11  C   UNL     1     -10.049  14.743  68.046  1.00  0.00    -0.218 A  
ENDROOT
BRANCH   6  12
HETATM   12  N   UNL     1      -8.243  11.743  66.839  1.00  0.00    -0.168 NA 
HETATM   13  H   UNL     1      -7.635  11.608  66.031  1.00  0.00     0.000 HD 
BRANCH  12  14
HETATM   14  N   UNL     1      -8.177  11.046  67.874  1.00  0.00    -0.116 NA 
HETATM   15  H   UNL     1      -8.059  11.432  68.811  1.00  0.00     0.000 HD 
BRANCH  14  16
HETATM   16  C   UNL     1      -8.285   9.664  67.601  1.00  0.00    -0.114 A  
HETATM   17  C   UNL     1      -9.329   7.927  66.242  1.00  0.00    -0.225 A  
HETATM   18  C   UNL     1      -9.121   9.277  66.546  1.00  0.00    -0.191 A  
HETATM   19  C   UNL     1      -8.661   6.942  66.973  1.00  0.00    -0.121 A  
HETATM   20  C   UNL     1      -7.615   8.659  68.320  1.00  0.00    -0.097 A  
HETATM   21  C   UNL     1      -7.804   7.303  68.016  1.00  0.00    -0.118 A  
BRANCH  19  22
HETATM   22  S   UNL     1      -9.066   5.226  66.690  1.00  0.00    -0.126 S  
HETATM   23  O   UNL     1     -10.348   4.977  67.309  1.00  0.00    -0.188 OA 
HETATM   24  O   UNL     1      -7.898   4.457  67.075  1.00  0.00    -0.095 OA 
BRANCH  22  25
HETATM   25  N   UNL     1      -9.170   5.096  65.012  1.00  0.00    -0.328 N  
HETATM   26  H   UNL     1      -8.978   5.885  64.395  1.00  0.00     0.000 HD 
BRANCH  25  27
HETATM   27  C   UNL     1      -9.539   3.831  64.514  1.00  0.00    -0.171 A  
HETATM   28  N   UNL     1     -10.703   3.834  63.845  1.00  0.00    -0.278 NA 
HETATM   29  C   UNL     1     -11.066   2.663  63.276  1.00  0.00    -0.114 A  
HETATM   30  C   UNL     1     -10.327   1.493  63.374  1.00  0.00    -0.131 A  
HETATM   31  C   UNL     1      -9.143   1.522  64.103  1.00  0.00    -0.105 A  
HETATM   32  C   UNL     1      -8.733   2.718  64.688  1.00  0.00    -0.108 A  
ENDBRANCH  25  27
ENDBRANCH  22  25
ENDBRANCH  19  22
ENDBRANCH  14  16
ENDBRANCH  12  14
ENDBRANCH   6  12
TORSDOF 6
ENDMDL
