MODEL      242
REMARK 921   NORMALIZED FREE ENERGY PREDICTED BY IDOCK:    3.78 KCAL/MOL
REMARK 922        TOTAL FREE ENERGY PREDICTED BY IDOCK:    4.71 KCAL/MOL
REMARK 923 INTER-LIGAND FREE ENERGY PREDICTED BY IDOCK:   -1.08 KCAL/MOL
REMARK 924 INTRA-LIGAND FREE ENERGY PREDICTED BY IDOCK:    5.80 KCAL/MOL
REMARK 927      BINDING AFFINITY PREDICTED BY RF-SCORE:    0.00 PKD
ROOT
HETATM    1  C   UNL     1      -8.532  14.338  68.496  1.00  0.00    -0.164 C  
ENDROOT
BRANCH   1   2
HETATM    2  N   UNL     1      -8.016  13.024  68.915  1.00  0.00     0.080 N  
HETATM    3  C   UNL     1      -5.312  11.017  70.191  1.00  0.00    -0.063 A  
HETATM    4  C   UNL     1      -5.262   9.643  70.351  1.00  0.00    -0.032 A  
HETATM    5  O   UNL     1      -9.807  11.552  68.690  1.00  0.00    -0.199 OA 
HETATM    6  C   UNL     1      -6.415   8.868  70.128  1.00  0.00    -0.039 A  
HETATM    7  C   UNL     1      -6.772  12.948  69.468  1.00  0.00     0.031 C  
HETATM    8  C   UNL     1      -8.657  11.799  69.000  1.00  0.00     0.240 C  
HETATM    9  C   UNL     1      -7.666   9.437  69.789  1.00  0.00    -0.110 A  
HETATM   10  C   UNL     1      -7.669  10.815  69.543  1.00  0.00    -0.074 A  
HETATM   11  C   UNL     1      -6.511  11.554  69.777  1.00  0.00    -0.125 A  
HETATM   12  O   UNL     1      -5.990  13.851  69.710  1.00  0.00    -0.109 OA 
BRANCH   9  13
HETATM   13  N   UNL     1      -8.814   8.635  69.620  1.00  0.00    -0.135 NA 
HETATM   14  H   UNL     1      -9.685   9.114  69.393  1.00  0.00     0.000 HD 
BRANCH  13  15
HETATM   15  C   UNL     1      -8.860   7.347  69.729  1.00  0.00    -0.141 C  
HETATM   16  C   UNL     1      -8.205   6.214  68.994  1.00  0.00    -0.112 C  
HETATM   17  O   UNL     1      -9.683   6.866  70.677  1.00  0.00    -0.175 OA 
HETATM   18  H   UNL     1      -9.717   5.920  70.757  1.00  0.00     0.000 HD 
ENDBRANCH  13  15
ENDBRANCH   9  13
ENDBRANCH   1   2
BRANCH   1  19
HETATM   19  C   UNL     1      -9.541  14.298  67.333  1.00  0.00    -0.214 A  
HETATM   20  C   UNL     1     -10.293  13.145  67.078  1.00  0.00    -0.249 A  
HETATM   21  C   UNL     1     -11.811  14.389  65.642  1.00  0.00    -0.355 A  
HETATM   22  C   UNL     1      -9.877  15.481  66.632  1.00  0.00    -0.268 A  
HETATM   23  C   UNL     1     -11.418  13.193  66.248  1.00  0.00    -0.372 A  
HETATM   24  C   UNL     1     -11.006  15.535  65.794  1.00  0.00    -0.283 A  
BRANCH  24  25
HETATM   25  O   UNL     1     -11.443  16.653  65.126  1.00  0.00     0.077 OA 
BRANCH  25  26
HETATM   26  C   UNL     1     -10.951  17.930  65.520  1.00  0.00     0.283 C  
HETATM   27  C   UNL     1      -9.634  17.728  66.258  1.00  0.00    -0.256 C  
ENDBRANCH  25  26
ENDBRANCH  24  25
BRANCH  21  28
HETATM   28  O   UNL     1     -12.958  14.537  64.901  1.00  0.00    -0.569 OA 
HETATM   29  C   UNL     1     -13.601  15.804  64.937  1.00  0.00     2.945 C  
ENDBRANCH  21  28
ENDBRANCH   1  19
BRANCH   1  30
HETATM   30  C   UNL     1      -9.092  15.239  69.598  1.00  0.00    -0.125 C  
BRANCH  30  31
HETATM   31  S   UNL     1     -10.797  14.980  70.015  1.00  0.00    -0.182 S  
HETATM   32  O   UNL     1     -11.556  15.970  69.275  1.00  0.00    -0.352 OA 
HETATM   33  C   UNL     1     -10.983  15.389  71.735  1.00  0.00    -0.019 C  
HETATM   34  O   UNL     1     -11.098  13.571  69.870  1.00  0.00    -0.015 OA 
ENDBRANCH  30  31
ENDBRANCH   1  30
TORSDOF 9
ENDMDL
