MODEL       83
REMARK 921   NORMALIZED FREE ENERGY PREDICTED BY IDOCK:   -4.32 KCAL/MOL
REMARK 922        TOTAL FREE ENERGY PREDICTED BY IDOCK:   -6.34 KCAL/MOL
REMARK 923 INTER-LIGAND FREE ENERGY PREDICTED BY IDOCK:   -6.05 KCAL/MOL
REMARK 924 INTRA-LIGAND FREE ENERGY PREDICTED BY IDOCK:   -0.29 KCAL/MOL
REMARK 927      BINDING AFFINITY PREDICTED BY RF-SCORE:    0.00 PKD
ROOT
HETATM    1  K   UNL     1      -8.897  15.085  65.422  1.00  0.00    -0.424 K  
HETATM    2  C   UNL     2     -11.606  12.701  65.016  1.00  0.00    -0.345 C  
HETATM    3  H   UNL     2      -9.692  13.153  65.212  1.00  0.00     0.000 HD 
HETATM    4  O   UNL     2     -10.287  13.003  64.488  1.00  0.00    -0.366 OA 
ENDROOT
BRANCH   2   5
HETATM    5  C   UNL     2     -12.566  12.459  63.849  1.00  0.00    -0.427 C  
HETATM    6  O   UNL     2     -12.055  11.389  63.046  1.00  0.00    -0.934 OA 
HETATM    7  H   UNL     2     -12.651  11.240  62.322  1.00  0.00     0.000 HD 
ENDBRANCH   2   5
BRANCH   2   8
HETATM    8  C   UNL     2     -12.104  13.763  66.029  1.00  0.00    -0.436 C  
HETATM    9  O   UNL     2     -13.451  14.089  65.617  1.00  0.00    -0.713 OA 
HETATM   10  H   UNL     2     -13.756  14.739  66.237  1.00  0.00     0.000 HD 
BRANCH   8  11
HETATM   11  C   UNL     2     -12.035  13.337  67.526  1.00  0.00    -0.324 C  
HETATM   12  O   UNL     2     -12.322  14.444  68.402  1.00  0.00    -0.600 OA 
HETATM   13  H   UNL     2     -12.280  14.184  69.315  1.00  0.00     0.000 HD 
BRANCH  11  14
HETATM   14  C   UNL     2     -10.711  12.674  67.944  1.00  0.00    -0.218 C  
HETATM   15  C   UNL     2     -10.940  11.256  68.539  1.00  0.00    -0.220 C  
HETATM   16  O   UNL     2      -9.986  13.504  68.870  1.00  0.00    -0.410 OA 
HETATM   17  H   UNL     2      -9.169  13.094  69.128  1.00  0.00     0.000 HD 
HETATM   18  O   UNL     2     -11.881  10.603  67.990  1.00  0.00    -0.494 OA 
HETATM   19  O   UNL     2     -10.221  10.990  69.543  1.00  0.00    -0.139 OA 
ENDBRANCH  11  14
ENDBRANCH   8  11
ENDBRANCH   2   8
TORSDOF 4
ENDMDL
