MODEL       45
REMARK 921   NORMALIZED FREE ENERGY PREDICTED BY IDOCK:   36.09 KCAL/MOL
REMARK 922        TOTAL FREE ENERGY PREDICTED BY IDOCK:   75.28 KCAL/MOL
REMARK 923 INTER-LIGAND FREE ENERGY PREDICTED BY IDOCK:   64.90 KCAL/MOL
REMARK 924 INTRA-LIGAND FREE ENERGY PREDICTED BY IDOCK:   10.38 KCAL/MOL
REMARK 927      BINDING AFFINITY PREDICTED BY RF-SCORE:    0.00 PKD
ROOT
HETATM    1  C   UNL     1     -11.763   8.035  64.338  1.00  0.00    17.849 C  
HETATM    2  S   UNL     1     -13.187   8.993  63.763  1.00  0.00    21.069 SA 
ENDROOT
BRANCH   2   3
HETATM    3  C   UNL     1     -12.552  10.680  64.030  1.00  0.00     4.271 C  
BRANCH   3   4
HETATM    4  C   UNL     1     -12.865  11.220  65.429  1.00  0.00     3.986 C  
BRANCH   4   5
HETATM    5  C   UNL     1     -11.808  10.755  66.436  1.00  0.00     1.652 C  
BRANCH   5   6
HETATM    6  C   UNL     1     -10.990   9.556  65.892  1.00  0.00     1.292 C  
HETATM    7  H   UNL     1      -9.431  10.784  65.360  1.00  0.00     0.000 HD 
HETATM    8  N   UNL     1      -9.722   9.808  65.409  1.00  0.00    -0.304 N  
HETATM    9  O   UNL     1     -11.484   8.429  65.902  1.00  0.00     3.689 OA 
BRANCH   8  10
HETATM   10  C   UNL     1      -8.741   8.787  64.953  1.00  0.00    -0.125 C  
BRANCH  10  11
HETATM   11  C   UNL     1      -7.411   9.258  64.339  1.00  0.00    -0.106 C  
HETATM   12  O   UNL     1      -6.549  10.471  62.438  1.00  0.00    -0.136 OA 
HETATM   13  C   UNL     1      -7.505   9.987  63.034  1.00  0.00    -0.138 C  
HETATM   14  O   UNL     1      -8.762  10.184  62.605  1.00  0.00    -0.162 OA 
ENDBRANCH  10  11
BRANCH  10  15
HETATM   15  C   UNL     1      -8.329   7.855  66.121  1.00  0.00    -0.127 C  
HETATM   16  O   UNL     1      -7.179   7.818  66.556  1.00  0.00    -0.082 OA 
HETATM   17  H   UNL     1     -10.247   7.068  66.183  1.00  0.00     0.000 HD 
HETATM   18  N   UNL     1      -9.301   6.975  66.551  1.00  0.00    -0.165 N  
BRANCH  18  19
HETATM   19  C   UNL     1      -9.020   5.906  67.524  1.00  0.00    -0.107 C  
BRANCH  19  20
HETATM   20  C   UNL     1     -10.159   5.709  68.550  1.00  0.00    -0.236 C  
BRANCH  20  21
HETATM   21  C   UNL     1      -9.996   6.565  69.782  1.00  0.00    -0.189 A  
HETATM   22  C   UNL     1      -9.062   6.896  71.993  1.00  0.00    -0.141 A  
HETATM   23  C   UNL     1      -9.137   6.160  70.809  1.00  0.00    -0.156 A  
HETATM   24  C   UNL     1      -9.828   8.050  72.146  1.00  0.00    -0.286 A  
HETATM   25  C   UNL     1     -10.730   7.751  69.925  1.00  0.00    -0.245 A  
HETATM   26  C   UNL     1     -10.648   8.486  71.111  1.00  0.00    -0.277 A  
ENDBRANCH  20  21
ENDBRANCH  19  20
BRANCH  19  27
HETATM   27  C   UNL     1      -8.788   4.540  66.824  1.00  0.00    -0.112 C  
HETATM   28  N   UNL     1      -8.340   4.585  65.532  1.00  0.00    -0.114 N  
HETATM   29  O   UNL     1      -8.868   3.454  67.391  1.00  0.00    -0.109 OA 
HETATM   30  H2  UNL     1      -8.169   5.470  65.054  1.00  0.00     0.000 HD 
HETATM   31  H1  UNL     1      -8.188   3.688  65.072  1.00  0.00     0.000 HD 
ENDBRANCH  19  27
ENDBRANCH  18  19
ENDBRANCH  10  15
ENDBRANCH   8  10
ENDBRANCH   5   6
BRANCH   5  32
HETATM   32  N   UNL     1     -10.957  11.868  66.874  1.00  0.00    -0.273 N  
HETATM   33  C   UNL     1     -11.382  13.188  66.821  1.00  0.00    -0.316 C  
HETATM   34  H   UNL     1     -10.023  11.665  67.229  1.00  0.00     0.000 HD 
HETATM   35  O   UNL     1     -12.514  13.477  66.429  1.00  0.00    -0.380 OA 
BRANCH  33  36
HETATM   36  C   UNL     1     -10.364  14.311  67.198  1.00  0.00    -0.262 C  
BRANCH  36  37
HETATM   37  C   UNL     1     -10.444  14.800  68.654  1.00  0.00    -0.250 C  
BRANCH  37  38
HETATM   38  C   UNL     1      -9.162  15.290  69.280  1.00  0.00    -0.233 A  
HETATM   39  C   UNL     1      -9.195  17.851  68.720  1.00  0.00    -0.227 A  
HETATM   40  C   UNL     1      -8.704  16.650  69.275  1.00  0.00    -0.025 A  
HETATM   41  C   UNL     1      -8.204  14.560  69.957  1.00  0.00     0.787 A  
HETATM   42  C   UNL     1      -8.517  19.052  68.964  1.00  0.00    -0.205 A  
HETATM   43  H   UNL     1      -6.439  15.145  70.985  1.00  0.00     0.000 HD 
HETATM   44  C   UNL     1      -7.369  19.073  69.752  1.00  0.00     0.244 A  
HETATM   45  N   UNL     1      -7.246  15.419  70.424  1.00  0.00     0.315 NA 
HETATM   46  C   UNL     1      -6.850  17.896  70.295  1.00  0.00     1.110 A  
HETATM   47  C   UNL     1      -7.530  16.702  70.029  1.00  0.00     1.061 A  
ENDBRANCH  37  38
ENDBRANCH  36  37
BRANCH  36  48
HETATM   48  N   UNL     1     -10.381  15.416  66.208  1.00  0.00    -0.281 N  
HETATM   49  O   UNL     1     -12.628  15.345  65.786  1.00  0.00     0.719 OA 
HETATM   50  C   UNL     1     -11.529  15.851  65.574  1.00  0.00     0.213 C  
HETATM   51  H   UNL     1      -9.499  15.878  65.984  1.00  0.00     0.000 HD 
BRANCH  50  52
HETATM   52  C   UNL     1     -11.321  16.968  64.545  1.00  0.00     0.669 C  
BRANCH  52  53
HETATM   53  C   UNL     1      -9.838  17.104  64.158  1.00  0.00     6.336 C  
BRANCH  53  54
HETATM   54  N   UNL     1      -9.118  18.309  64.589  1.00  0.00     4.854 N  
HETATM   55  O   UNL     1      -7.171  17.320  65.265  1.00  0.00     0.387 OA 
HETATM   56  H   UNL     1      -9.524  19.219  64.370  1.00  0.00     0.000 HD 
HETATM   57  C   UNL     1      -7.930  18.274  65.271  1.00  0.00     1.446 C  
BRANCH  57  58
HETATM   58  O   UNL     1      -7.741  19.428  65.978  1.00  0.00    -0.298 OA 
HETATM   59  C   UNL     1      -5.580  18.817  67.035  1.00  0.00    -0.151 C  
HETATM   60  C   UNL     1      -6.482  21.120  67.178  1.00  0.00    -0.417 C  
HETATM   61  C   UNL     1      -5.662  20.314  64.980  1.00  0.00    -0.227 C  
HETATM   62  C   UNL     1      -6.379  19.880  66.265  1.00  0.00    -0.185 C  
ENDBRANCH  57  58
ENDBRANCH  53  54
ENDBRANCH  52  53
ENDBRANCH  50  52
ENDBRANCH  36  48
ENDBRANCH  33  36
ENDBRANCH   5  32
ENDBRANCH   4   5
ENDBRANCH   3   4
ENDBRANCH   2   3
TORSDOF 20
ENDMDL
