MODEL       50
REMARK 921   NORMALIZED FREE ENERGY PREDICTED BY IDOCK:   -5.26 KCAL/MOL
REMARK 922        TOTAL FREE ENERGY PREDICTED BY IDOCK:  -10.22 KCAL/MOL
REMARK 923 INTER-LIGAND FREE ENERGY PREDICTED BY IDOCK:   -9.64 KCAL/MOL
REMARK 924 INTRA-LIGAND FREE ENERGY PREDICTED BY IDOCK:   -0.58 KCAL/MOL
REMARK 927      BINDING AFFINITY PREDICTED BY RF-SCORE:    0.00 PKD
ROOT
HETATM    1  C   UNL     1     -12.061   6.819  70.684  1.00  0.00    -0.371 C  
HETATM    2  C   UNL     1     -10.936   7.651  71.313  1.00  0.00    -0.260 C  
HETATM    3  C   UNL     1     -11.196   7.831  72.815  1.00  0.00    -0.456 C  
HETATM    4  C   UNL     1      -9.639   6.807  71.183  1.00  0.00    -0.177 C  
ENDROOT
BRANCH   2   5
HETATM    5  C   UNL     1     -10.685   9.005  70.572  1.00  0.00    -0.285 C  
BRANCH   5   6
HETATM    6  C   UNL     1     -10.097   9.136  69.115  1.00  0.00    -0.199 C  
HETATM    7  C   UNL     1     -10.525   7.976  68.188  1.00  0.00    -0.222 C  
HETATM    8  C   UNL     1      -8.554   9.164  69.109  1.00  0.00    -0.133 C  
BRANCH   6   9
HETATM    9  C   UNL     1     -10.678  10.443  68.509  1.00  0.00    -0.255 A  
HETATM   10  C   UNL     1     -11.218  11.480  69.290  1.00  0.00    -0.336 A  
HETATM   11  C   UNL     1     -11.726  12.642  68.707  1.00  0.00    -0.364 A  
HETATM   12  C   UNL     1     -11.725  12.798  67.327  1.00  0.00    -0.378 A  
HETATM   13  C   UNL     1     -10.697  10.622  67.110  1.00  0.00    -0.327 A  
HETATM   14  C   UNL     1     -11.219  11.781  66.524  1.00  0.00    -0.380 A  
BRANCH  12  15
HETATM   15  O   UNL     1     -12.277  13.969  66.884  1.00  0.00    -0.436 OA 
BRANCH  15  16
HETATM   16  C   UNL     1     -12.417  14.102  65.477  1.00  0.00    -0.476 C  
BRANCH  16  17
HETATM   17  C   UNL     1     -11.466  15.207  65.009  1.00  0.00    -0.339 C  
BRANCH  17  18
HETATM   18  O   UNL     1     -10.070  14.905  65.121  1.00  0.00    -0.365 OA 
BRANCH  18  19
HETATM   19  C   UNL     1      -9.303  15.704  66.016  1.00  0.00    -0.349 C  
BRANCH  19  20
HETATM   20  C   UNL     1     -10.155  16.801  66.669  1.00  0.00    -0.300 C  
BRANCH  20  21
HETATM   21  N   UNL     1      -9.846  17.089  68.145  1.00  0.00    -0.262 N  
HETATM   22  C   UNL     1     -10.970  16.444  68.966  1.00  0.00    -0.325 C  
HETATM   23  C   UNL     1      -8.531  16.432  68.549  1.00  0.00    -0.211 C  
BRANCH  21  24
HETATM   24  C   UNL     1      -9.821  18.620  68.402  1.00  0.00    -0.384 C  
BRANCH  24  25
HETATM   25  C   UNL     1      -8.502  19.295  68.134  1.00  0.00    -0.362 A  
HETATM   26  C   UNL     1      -7.556  19.419  69.163  1.00  0.00    -0.316 A  
HETATM   27  C   UNL     1      -6.400  20.172  68.970  1.00  0.00    -0.360 A  
HETATM   28  C   UNL     1      -6.169  20.792  67.745  1.00  0.00    -0.357 A  
HETATM   29  C   UNL     1      -7.072  20.628  66.697  1.00  0.00    -0.299 A  
HETATM   30  C   UNL     1      -8.227  19.870  66.884  1.00  0.00    -0.358 A  
ENDBRANCH  24  25
ENDBRANCH  21  24
ENDBRANCH  20  21
ENDBRANCH  19  20
ENDBRANCH  18  19
ENDBRANCH  17  18
ENDBRANCH  16  17
ENDBRANCH  15  16
ENDBRANCH  12  15
ENDBRANCH   6   9
ENDBRANCH   5   6
ENDBRANCH   2   5
TORSDOF 12
ENDMDL
