MODEL      129
REMARK 921   NORMALIZED FREE ENERGY PREDICTED BY IDOCK:   17.40 KCAL/MOL
REMARK 922        TOTAL FREE ENERGY PREDICTED BY IDOCK:   24.00 KCAL/MOL
REMARK 923 INTER-LIGAND FREE ENERGY PREDICTED BY IDOCK:   -1.71 KCAL/MOL
REMARK 924 INTRA-LIGAND FREE ENERGY PREDICTED BY IDOCK:   25.71 KCAL/MOL
REMARK 927      BINDING AFFINITY PREDICTED BY RF-SCORE:    0.00 PKD
ROOT
HETATM    1  C   UNL     1     -10.101  20.215  68.479  1.00  0.00    -0.272 C  
HETATM    2  O   UNL     1     -10.872  19.013  68.523  1.00  0.00     0.074 OA 
ENDROOT
BRANCH   2   3
HETATM    3  C   UNL     1     -11.493  18.697  67.355  1.00  0.00     0.894 C  
HETATM    4  O   UNL     1     -11.924  19.499  66.535  1.00  0.00     1.393 OA 
BRANCH   3   5
HETATM    5  C   UNL     1     -11.550  17.224  67.183  1.00  0.00     1.176 A  
HETATM    6  C   UNL     1     -11.732  16.350  68.275  1.00  0.00     0.106 A  
HETATM    7  C   UNL     1     -11.751  14.959  68.098  1.00  0.00    -0.344 A  
HETATM    8  C   UNL     1     -11.585  14.437  66.826  1.00  0.00    -0.399 A  
HETATM    9  C   UNL     1     -11.407  15.319  65.753  1.00  0.00    -0.180 A  
HETATM   10  C   UNL     1     -11.399  16.696  65.894  1.00  0.00     0.603 A  
HETATM   11  N   UNL     1     -11.234  14.619  64.569  1.00  0.00    -0.603 N  
HETATM   12  H   UNL     1     -11.080  15.058  63.661  1.00  0.00     0.000 HD 
HETATM   13  C   UNL     1     -11.297  13.248  64.770  1.00  0.00    -0.327 C  
HETATM   14  O   UNL     1     -11.233  12.405  63.895  1.00  0.00    -0.353 OA 
HETATM   15  C   UNL     1     -11.516  13.068  66.262  1.00  0.00    -0.379 C  
HETATM   16  C   UNL     1     -11.597  11.859  66.869  1.00  0.00    -0.285 C  
BRANCH  16  17
HETATM   17  C   UNL     1     -11.865  11.786  68.322  1.00  0.00    -0.340 A  
HETATM   18  C   UNL     1     -12.219  11.612  71.090  1.00  0.00    -0.249 A  
HETATM   19  C   UNL     1     -11.743  12.932  69.119  1.00  0.00    -0.376 A  
HETATM   20  C   UNL     1     -12.190  10.562  68.920  1.00  0.00     0.253 A  
HETATM   21  C   UNL     1     -11.916  12.841  70.502  1.00  0.00    -0.277 A  
HETATM   22  C   UNL     1     -12.363  10.474  70.300  1.00  0.00    -0.377 A  
ENDBRANCH  16  17
BRANCH  16  23
HETATM   23  N   UNL     1     -11.467  10.589  66.297  1.00  0.00     0.363 NA 
HETATM   24  H   UNL     1     -11.959  10.372  65.430  1.00  0.00     0.000 HD 
BRANCH  23  25
HETATM   25  C   UNL     1     -10.654   9.594  66.914  1.00  0.00    -0.171 A  
HETATM   26  C   UNL     1      -9.252   7.380  68.050  1.00  0.00    -0.132 A  
HETATM   27  C   UNL     1      -9.553   9.038  66.276  1.00  0.00    -0.327 A  
HETATM   28  C   UNL     1     -10.916   9.182  68.219  1.00  0.00    -0.010 A  
HETATM   29  C   UNL     1      -8.879   7.943  66.825  1.00  0.00    -0.154 A  
HETATM   30  C   UNL     1     -10.226   8.091  68.774  1.00  0.00    -0.220 A  
BRANCH  26  31
HETATM   31  N   UNL     1      -8.709   6.115  68.513  1.00  0.00    -0.112 N  
HETATM   32  C   UNL     1      -9.495   4.899  68.287  1.00  0.00    -0.138 C  
HETATM   33  C   UNL     1      -7.424   6.012  69.097  1.00  0.00    -0.086 C  
HETATM   34  O   UNL     1      -6.689   6.966  69.380  1.00  0.00    -0.047 OA 
BRANCH  33  35
HETATM   35  C   UNL     1      -6.911   4.629  69.526  1.00  0.00    -0.050 C  
BRANCH  35  36
HETATM   36  N   UNL     1      -7.865   3.518  69.325  1.00  0.00    -0.051 NA 
HETATM   37  C   UNL     1      -9.216   3.941  68.890  1.00  0.00    -0.152 C  
HETATM   38  C   UNL     1      -9.405   4.262  67.381  1.00  0.00    -0.163 C  
HETATM   39  N   UNL     1      -8.758   3.333  66.430  1.00  0.00    -0.122 NA 
HETATM   40  C   UNL     1      -9.522   2.098  66.261  1.00  0.00     0.240 C  
HETATM   41  C   UNL     1      -7.386   3.051  66.882  1.00  0.00    -0.070 C  
HETATM   42  C   UNL     1      -7.306   2.565  68.347  1.00  0.00    -0.048 C  
ENDBRANCH  35  36
ENDBRANCH  33  35
ENDBRANCH  26  31
ENDBRANCH  23  25
ENDBRANCH  16  23
ENDBRANCH   3   5
ENDBRANCH   2   3
TORSDOF 8
ENDMDL
